<?xml version="1.0" ?>
<routes>
   <vType id="type1" accel="0.8" decel="4.5" sigma="0.5" length="5" maxSpeed="70"/>
   <vehicle id="vehicle_0" type="type1" depart="0.00" color="1,0,0">
      <route edges="-590598876#1 -590598876#0 -130285156#3 -130285156#2 -130285156#1 -130285156#0 -1120094388"/>
   </vehicle>
   <vehicle id="vehicle_1" type="type1" depart="4.07" color="1,0,0">
      <route edges="-590598876#1 -590598876#0 -50799230#3 -50799230#2 -50799230#1 -50799230#0"/>
   </vehicle>
   <vehicle id="vehicle_2" type="type1" depart="8.14" color="1,0,0">
      <route edges="1120094388 130285156#0 130285156#1 130285156#2 130285156#3 590598876#0 590598876#1"/>
   </vehicle>
   <vehicle id="vehicle_3" type="type1" depart="12.22" color="1,0,0">
      <route edges="50799230#0 50799230#1 50799230#2 50799230#3 -130285156#3 -130285156#2 -130285156#1 -130285156#0 -1120094388"/>
   </vehicle>
   <vehicle id="vehicle_4" type="type1" depart="16.29" color="1,0,0">
      <route edges="50799230#1 50799230#2 50799230#3 590598876#0 590598876#1"/>
   </vehicle>
   <vehicle id="vehicle_5" type="type1" depart="20.36" color="1,0,0">
      <route edges="1120094388 130285156#0 130285156#1 130285156#2 130285156#3 -50799230#3 -50799230#2 -50799230#1 -50799230#0"/>
   </vehicle>
   <vehicle id="vehicle_6" type="type1" depart="24.43" color="1,0,0">
      <route edges="-590598876#1 -590598876#0 -130285156#3 -130285156#2 -130285156#1 -130285156#0 -1120094388"/>
   </vehicle>
   <vehicle id="vehicle_7" type="type1" depart="28.51" color="1,0,0">
      <route edges="-590598876#1 -590598876#0 -50799230#3 -50799230#2 -50799230#1 -50799230#0"/>
   </vehicle>
   <vehicle id="vehicle_8" type="type1" depart="32.58" color="1,0,0">
      <route edges="1120094388 130285156#0 130285156#1 130285156#2 130285156#3 590598876#0 590598876#1"/>
   </vehicle>
   <vehicle id="vehicle_9" type="type1" depart="36.65" color="1,0,0">
      <route edges="50799230#0 50799230#1 50799230#2 50799230#3 -130285156#3 -130285156#2 -130285156#1 -130285156#0 -1120094388"/>
   </vehicle>
   <vehicle id="vehicle_10" type="type1" depart="40.72" color="1,0,0">
      <route edges="50799230#1 50799230#2 50799230#3 590598876#0 590598876#1"/>
   </vehicle>
   <vehicle id="vehicle_11" type="type1" depart="44.80" color="1,0,0">
      <route edges="1120094388 130285156#0 130285156#1 130285156#2 130285156#3 -50799230#3 -50799230#2 -50799230#1 -50799230#0"/>
   </vehicle>
   <vehicle id="vehicle_12" type="type1" depart="48.87" color="1,0,0">
      <route edges="-590598876#1 -590598876#0 -130285156#3 -130285156#2 -130285156#1 -130285156#0 -1120094388"/>
   </vehicle>
   <vehicle id="vehicle_13" type="type1" depart="52.94" color="1,0,0">
      <route edges="-590598876#1 -590598876#0 -50799230#3 -50799230#2 -50799230#1 -50799230#0"/>
   </vehicle>
   <vehicle id="vehicle_14" type="type1" depart="57.01" color="1,0,0">
      <route edges="1120094388 130285156#0 130285156#1 130285156#2 130285156#3 590598876#0 590598876#1"/>
   </vehicle>
   <vehicle id="vehicle_15" type="type1" depart="61.09" color="1,0,0">
      <route edges="50799230#0 50799230#1 50799230#2 50799230#3 -130285156#3 -130285156#2 -130285156#1 -130285156#0 -1120094388"/>
   </vehicle>
   <vehicle id="vehicle_16" type="type1" depart="65.16" color="1,0,0">
      <route edges="50799230#1 50799230#2 50799230#3 590598876#0 590598876#1"/>
   </vehicle>
   <vehicle id="vehicle_17" type="type1" depart="69.23" color="1,0,0">
      <route edges="1120094388 130285156#0 130285156#1 130285156#2 130285156#3 -50799230#3 -50799230#2 -50799230#1 -50799230#0"/>
   </vehicle>
   <vehicle id="vehicle_18" type="type1" depart="73.30" color="1,0,0">
      <route edges="-590598876#1 -590598876#0 -130285156#3 -130285156#2 -130285156#1 -130285156#0 -1120094388"/>
   </vehicle>
   <vehicle id="vehicle_19" type="type1" depart="77.38" color="1,0,0">
      <route edges="-590598876#1 -590598876#0 -50799230#3 -50799230#2 -50799230#1 -50799230#0"/>
   </vehicle>
   <vehicle id="vehicle_20" type="type1" depart="81.45" color="1,0,0">
      <route edges="1120094388 130285156#0 130285156#1 130285156#2 130285156#3 590598876#0 590598876#1"/>
   </vehicle>
   <vehicle id="vehicle_21" type="type1" depart="85.52" color="1,0,0">
      <route edges="50799230#0 50799230#1 50799230#2 50799230#3 -130285156#3 -130285156#2 -130285156#1 -130285156#0 -1120094388"/>
   </vehicle>
   <vehicle id="vehicle_22" type="type1" depart="89.59" color="1,0,0">
      <route edges="50799230#1 50799230#2 50799230#3 590598876#0 590598876#1"/>
   </vehicle>
   <vehicle id="vehicle_23" type="type1" depart="93.67" color="1,0,0">
      <route edges="1120094388 130285156#0 130285156#1 130285156#2 130285156#3 -50799230#3 -50799230#2 -50799230#1 -50799230#0"/>
   </vehicle>
   <vehicle id="vehicle_24" type="type1" depart="97.74" color="1,0,0">
      <route edges="-590598876#1 -590598876#0 -130285156#3 -130285156#2 -130285156#1 -130285156#0 -1120094388"/>
   </vehicle>
   <vehicle id="vehicle_25" type="type1" depart="101.81" color="1,0,0">
      <route edges="-590598876#1 -590598876#0 -50799230#3 -50799230#2 -50799230#1 -50799230#0"/>
   </vehicle>
   <vehicle id="vehicle_26" type="type1" depart="105.88" color="1,0,0">
      <route edges="1120094388 130285156#0 130285156#1 130285156#2 130285156#3 590598876#0 590598876#1"/>
   </vehicle>
   <vehicle id="vehicle_27" type="type1" depart="109.95" color="1,0,0">
      <route edges="50799230#0 50799230#1 50799230#2 50799230#3 -130285156#3 -130285156#2 -130285156#1 -130285156#0 -1120094388"/>
   </vehicle>
   <vehicle id="vehicle_28" type="type1" depart="114.03" color="1,0,0">
      <route edges="50799230#1 50799230#2 50799230#3 590598876#0 590598876#1"/>
   </vehicle>
   <vehicle id="vehicle_29" type="type1" depart="118.10" color="1,0,0">
      <route edges="1120094388 130285156#0 130285156#1 130285156#2 130285156#3 -50799230#3 -50799230#2 -50799230#1 -50799230#0"/>
   </vehicle>
   <vehicle id="vehicle_30" type="type1" depart="122.17" color="1,0,0">
      <route edges="-590598876#1 -590598876#0 -130285156#3 -130285156#2 -130285156#1 -130285156#0 -1120094388"/>
   </vehicle>
   <vehicle id="vehicle_31" type="type1" depart="126.24" color="1,0,0">
      <route edges="-590598876#1 -590598876#0 -50799230#3 -50799230#2 -50799230#1 -50799230#0"/>
   </vehicle>
   <vehicle id="vehicle_32" type="type1" depart="130.32" color="1,0,0">
      <route edges="1120094388 130285156#0 130285156#1 130285156#2 130285156#3 590598876#0 590598876#1"/>
   </vehicle>
   <vehicle id="vehicle_33" type="type1" depart="134.39" color="1,0,0">
      <route edges="50799230#0 50799230#1 50799230#2 50799230#3 -130285156#3 -130285156#2 -130285156#1 -130285156#0 -1120094388"/>
   </vehicle>
   <vehicle id="vehicle_34" type="type1" depart="138.46" color="1,0,0">
      <route edges="50799230#1 50799230#2 50799230#3 590598876#0 590598876#1"/>
   </vehicle>
   <vehicle id="vehicle_35" type="type1" depart="142.53" color="1,0,0">
      <route edges="1120094388 130285156#0 130285156#1 130285156#2 130285156#3 -50799230#3 -50799230#2 -50799230#1 -50799230#0"/>
   </vehicle>
   <vehicle id="vehicle_36" type="type1" depart="146.61" color="1,0,0">
      <route edges="-590598876#1 -590598876#0 -130285156#3 -130285156#2 -130285156#1 -130285156#0 -1120094388"/>
   </vehicle>
   <vehicle id="vehicle_37" type="type1" depart="150.68" color="1,0,0">
      <route edges="-590598876#1 -590598876#0 -50799230#3 -50799230#2 -50799230#1 -50799230#0"/>
   </vehicle>
   <vehicle id="vehicle_38" type="type1" depart="154.75" color="1,0,0">
      <route edges="1120094388 130285156#0 130285156#1 130285156#2 130285156#3 590598876#0 590598876#1"/>
   </vehicle>
   <vehicle id="vehicle_39" type="type1" depart="158.82" color="1,0,0">
      <route edges="50799230#0 50799230#1 50799230#2 50799230#3 -130285156#3 -130285156#2 -130285156#1 -130285156#0 -1120094388"/>
   </vehicle>
   <vehicle id="vehicle_40" type="type1" depart="162.90" color="1,0,0">
      <route edges="50799230#1 50799230#2 50799230#3 590598876#0 590598876#1"/>
   </vehicle>
   <vehicle id="vehicle_41" type="type1" depart="166.97" color="1,0,0">
      <route edges="1120094388 130285156#0 130285156#1 130285156#2 130285156#3 -50799230#3 -50799230#2 -50799230#1 -50799230#0"/>
   </vehicle>
   <vehicle id="vehicle_42" type="type1" depart="171.04" color="1,0,0">
      <route edges="-590598876#1 -590598876#0 -130285156#3 -130285156#2 -130285156#1 -130285156#0 -1120094388"/>
   </vehicle>
   <vehicle id="vehicle_43" type="type1" depart="175.11" color="1,0,0">
      <route edges="-590598876#1 -590598876#0 -50799230#3 -50799230#2 -50799230#1 -50799230#0"/>
   </vehicle>
   <vehicle id="vehicle_44" type="type1" depart="179.19" color="1,0,0">
      <route edges="1120094388 130285156#0 130285156#1 130285156#2 130285156#3 590598876#0 590598876#1"/>
   </vehicle>
   <vehicle id="vehicle_45" type="type1" depart="183.26" color="1,0,0">
      <route edges="50799230#0 50799230#1 50799230#2 50799230#3 -130285156#3 -130285156#2 -130285156#1 -130285156#0 -1120094388"/>
   </vehicle>
   <vehicle id="vehicle_46" type="type1" depart="187.33" color="1,0,0">
      <route edges="50799230#1 50799230#2 50799230#3 590598876#0 590598876#1"/>
   </vehicle>
   <vehicle id="vehicle_47" type="type1" depart="191.40" color="1,0,0">
      <route edges="1120094388 130285156#0 130285156#1 130285156#2 130285156#3 -50799230#3 -50799230#2 -50799230#1 -50799230#0"/>
   </vehicle>
   <vehicle id="vehicle_48" type="type1" depart="195.48" color="1,0,0">
      <route edges="-590598876#1 -590598876#0 -130285156#3 -130285156#2 -130285156#1 -130285156#0 -1120094388"/>
   </vehicle>
   <vehicle id="vehicle_49" type="type1" depart="199.55" color="1,0,0">
      <route edges="-590598876#1 -590598876#0 -50799230#3 -50799230#2 -50799230#1 -50799230#0"/>
   </vehicle>
   <vehicle id="vehicle_50" type="type1" depart="203.62" color="1,0,0">
      <route edges="1120094388 130285156#0 130285156#1 130285156#2 130285156#3 590598876#0 590598876#1"/>
   </vehicle>
   <vehicle id="vehicle_51" type="type1" depart="207.69" color="1,0,0">
      <route edges="50799230#0 50799230#1 50799230#2 50799230#3 -130285156#3 -130285156#2 -130285156#1 -130285156#0 -1120094388"/>
   </vehicle>
   <vehicle id="vehicle_52" type="type1" depart="211.76" color="1,0,0">
      <route edges="50799230#1 50799230#2 50799230#3 590598876#0 590598876#1"/>
   </vehicle>
   <vehicle id="vehicle_53" type="type1" depart="215.84" color="1,0,0">
      <route edges="1120094388 130285156#0 130285156#1 130285156#2 130285156#3 -50799230#3 -50799230#2 -50799230#1 -50799230#0"/>
   </vehicle>
   <vehicle id="vehicle_54" type="type1" depart="219.91" color="1,0,0">
      <route edges="-590598876#1 -590598876#0 -130285156#3 -130285156#2 -130285156#1 -130285156#0 -1120094388"/>
   </vehicle>
   <vehicle id="vehicle_55" type="type1" depart="223.98" color="1,0,0">
      <route edges="-590598876#1 -590598876#0 -50799230#3 -50799230#2 -50799230#1 -50799230#0"/>
   </vehicle>
   <vehicle id="vehicle_56" type="type1" depart="228.05" color="1,0,0">
      <route edges="1120094388 130285156#0 130285156#1 130285156#2 130285156#3 590598876#0 590598876#1"/>
   </vehicle>
   <vehicle id="vehicle_57" type="type1" depart="232.13" color="1,0,0">
      <route edges="50799230#0 50799230#1 50799230#2 50799230#3 -130285156#3 -130285156#2 -130285156#1 -130285156#0 -1120094388"/>
   </vehicle>
   <vehicle id="vehicle_58" type="type1" depart="236.20" color="1,0,0">
      <route edges="50799230#1 50799230#2 50799230#3 590598876#0 590598876#1"/>
   </vehicle>
   <vehicle id="vehicle_59" type="type1" depart="240.27" color="1,0,0">
      <route edges="1120094388 130285156#0 130285156#1 130285156#2 130285156#3 -50799230#3 -50799230#2 -50799230#1 -50799230#0"/>
   </vehicle>
   <vehicle id="vehicle_60" type="type1" depart="244.34" color="1,0,0">
      <route edges="-590598876#1 -590598876#0 -130285156#3 -130285156#2 -130285156#1 -130285156#0 -1120094388"/>
   </vehicle>
   <vehicle id="vehicle_61" type="type1" depart="248.42" color="1,0,0">
      <route edges="-590598876#1 -590598876#0 -50799230#3 -50799230#2 -50799230#1 -50799230#0"/>
   </vehicle>
   <vehicle id="vehicle_62" type="type1" depart="252.49" color="1,0,0">
      <route edges="1120094388 130285156#0 130285156#1 130285156#2 130285156#3 590598876#0 590598876#1"/>
   </vehicle>
   <vehicle id="vehicle_63" type="type1" depart="256.56" color="1,0,0">
      <route edges="50799230#0 50799230#1 50799230#2 50799230#3 -130285156#3 -130285156#2 -130285156#1 -130285156#0 -1120094388"/>
   </vehicle>
   <vehicle id="vehicle_64" type="type1" depart="260.63" color="1,0,0">
      <route edges="50799230#1 50799230#2 50799230#3 590598876#0 590598876#1"/>
   </vehicle>
   <vehicle id="vehicle_65" type="type1" depart="264.71" color="1,0,0">
      <route edges="1120094388 130285156#0 130285156#1 130285156#2 130285156#3 -50799230#3 -50799230#2 -50799230#1 -50799230#0"/>
   </vehicle>
   <vehicle id="vehicle_66" type="type1" depart="268.78" color="1,0,0">
      <route edges="-590598876#1 -590598876#0 -130285156#3 -130285156#2 -130285156#1 -130285156#0 -1120094388"/>
   </vehicle>
   <vehicle id="vehicle_67" type="type1" depart="272.85" color="1,0,0">
      <route edges="-590598876#1 -590598876#0 -50799230#3 -50799230#2 -50799230#1 -50799230#0"/>
   </vehicle>
   <vehicle id="vehicle_68" type="type1" depart="276.92" color="1,0,0">
      <route edges="1120094388 130285156#0 130285156#1 130285156#2 130285156#3 590598876#0 590598876#1"/>
   </vehicle>
   <vehicle id="vehicle_69" type="type1" depart="281.00" color="1,0,0">
      <route edges="50799230#0 50799230#1 50799230#2 50799230#3 -130285156#3 -130285156#2 -130285156#1 -130285156#0 -1120094388"/>
   </vehicle>
   <vehicle id="vehicle_70" type="type1" depart="285.07" color="1,0,0">
      <route edges="50799230#1 50799230#2 50799230#3 590598876#0 590598876#1"/>
   </vehicle>
   <vehicle id="vehicle_71" type="type1" depart="289.14" color="1,0,0">
      <route edges="1120094388 130285156#0 130285156#1 130285156#2 130285156#3 -50799230#3 -50799230#2 -50799230#1 -50799230#0"/>
   </vehicle>
   <vehicle id="vehicle_72" type="type1" depart="293.21" color="1,0,0">
      <route edges="-590598876#1 -590598876#0 -130285156#3 -130285156#2 -130285156#1 -130285156#0 -1120094388"/>
   </vehicle>
   <vehicle id="vehicle_73" type="type1" depart="297.29" color="1,0,0">
      <route edges="-590598876#1 -590598876#0 -50799230#3 -50799230#2 -50799230#1 -50799230#0"/>
   </vehicle>
   <vehicle id="vehicle_74" type="type1" depart="301.36" color="1,0,0">
      <route edges="1120094388 130285156#0 130285156#1 130285156#2 130285156#3 590598876#0 590598876#1"/>
   </vehicle>
   <vehicle id="vehicle_75" type="type1" depart="305.43" color="1,0,0">
      <route edges="50799230#0 50799230#1 50799230#2 50799230#3 -130285156#3 -130285156#2 -130285156#1 -130285156#0 -1120094388"/>
   </vehicle>
   <vehicle id="vehicle_76" type="type1" depart="309.50" color="1,0,0">
      <route edges="50799230#1 50799230#2 50799230#3 590598876#0 590598876#1"/>
   </vehicle>
   <vehicle id="vehicle_77" type="type1" depart="313.57" color="1,0,0">
      <route edges="1120094388 130285156#0 130285156#1 130285156#2 130285156#3 -50799230#3 -50799230#2 -50799230#1 -50799230#0"/>
   </vehicle>
   <vehicle id="vehicle_78" type="type1" depart="317.65" color="1,0,0">
      <route edges="-590598876#1 -590598876#0 -130285156#3 -130285156#2 -130285156#1 -130285156#0 -1120094388"/>
   </vehicle>
   <vehicle id="vehicle_79" type="type1" depart="321.72" color="1,0,0">
      <route edges="-590598876#1 -590598876#0 -50799230#3 -50799230#2 -50799230#1 -50799230#0"/>
   </vehicle>
   <vehicle id="vehicle_80" type="type1" depart="325.79" color="1,0,0">
      <route edges="1120094388 130285156#0 130285156#1 130285156#2 130285156#3 590598876#0 590598876#1"/>
   </vehicle>
   <vehicle id="vehicle_81" type="type1" depart="329.86" color="1,0,0">
      <route edges="50799230#0 50799230#1 50799230#2 50799230#3 -130285156#3 -130285156#2 -130285156#1 -130285156#0 -1120094388"/>
   </vehicle>
   <vehicle id="vehicle_82" type="type1" depart="333.94" color="1,0,0">
      <route edges="50799230#1 50799230#2 50799230#3 590598876#0 590598876#1"/>
   </vehicle>
   <vehicle id="vehicle_83" type="type1" depart="338.01" color="1,0,0">
      <route edges="1120094388 130285156#0 130285156#1 130285156#2 130285156#3 -50799230#3 -50799230#2 -50799230#1 -50799230#0"/>
   </vehicle>
   <vehicle id="vehicle_84" type="type1" depart="342.08" color="1,0,0">
      <route edges="-590598876#1 -590598876#0 -130285156#3 -130285156#2 -130285156#1 -130285156#0 -1120094388"/>
   </vehicle>
   <vehicle id="vehicle_85" type="type1" depart="346.15" color="1,0,0">
      <route edges="-590598876#1 -590598876#0 -50799230#3 -50799230#2 -50799230#1 -50799230#0"/>
   </vehicle>
   <vehicle id="vehicle_86" type="type1" depart="350.23" color="1,0,0">
      <route edges="1120094388 130285156#0 130285156#1 130285156#2 130285156#3 590598876#0 590598876#1"/>
   </vehicle>
   <vehicle id="vehicle_87" type="type1" depart="354.30" color="1,0,0">
      <route edges="50799230#0 50799230#1 50799230#2 50799230#3 -130285156#3 -130285156#2 -130285156#1 -130285156#0 -1120094388"/>
   </vehicle>
   <vehicle id="vehicle_88" type="type1" depart="358.37" color="1,0,0">
      <route edges="50799230#1 50799230#2 50799230#3 590598876#0 590598876#1"/>
   </vehicle>
   <vehicle id="vehicle_89" type="type1" depart="362.44" color="1,0,0">
      <route edges="1120094388 130285156#0 130285156#1 130285156#2 130285156#3 -50799230#3 -50799230#2 -50799230#1 -50799230#0"/>
   </vehicle>
   <vehicle id="vehicle_90" type="type1" depart="366.52" color="1,0,0">
      <route edges="-590598876#1 -590598876#0 -130285156#3 -130285156#2 -130285156#1 -130285156#0 -1120094388"/>
   </vehicle>
   <vehicle id="vehicle_91" type="type1" depart="370.59" color="1,0,0">
      <route edges="1120094388 130285156#0 130285156#1 130285156#2 130285156#3 590598876#0 590598876#1"/>
   </vehicle>
   <vehicle id="vehicle_92" type="type1" depart="374.66" color="1,0,0">
      <route edges="50799230#0 50799230#1 50799230#2 50799230#3 -130285156#3 -130285156#2 -130285156#1 -130285156#0 -1120094388"/>
   </vehicle>
   <vehicle id="vehicle_93" type="type1" depart="378.73" color="1,0,0">
      <route edges="50799230#1 50799230#2 50799230#3 590598876#0 590598876#1"/>
   </vehicle>
   <vehicle id="vehicle_94" type="type1" depart="382.81" color="1,0,0">
      <route edges="1120094388 130285156#0 130285156#1 130285156#2 130285156#3 -50799230#3 -50799230#2 -50799230#1 -50799230#0"/>
   </vehicle>
   <vehicle id="vehicle_95" type="type1" depart="386.88" color="1,0,0">
      <route edges="-590598876#1 -590598876#0 -130285156#3 -130285156#2 -130285156#1 -130285156#0 -1120094388"/>
   </vehicle>
   <vehicle id="vehicle_96" type="type1" depart="390.95" color="1,0,0">
      <route edges="1120094388 130285156#0 130285156#1 130285156#2 130285156#3 590598876#0 590598876#1"/>
   </vehicle>
   <vehicle id="vehicle_97" type="type1" depart="395.02" color="1,0,0">
      <route edges="50799230#0 50799230#1 50799230#2 50799230#3 -130285156#3 -130285156#2 -130285156#1 -130285156#0 -1120094388"/>
   </vehicle>
   <vehicle id="vehicle_98" type="type1" depart="399.10" color="1,0,0">
      <route edges="50799230#1 50799230#2 50799230#3 590598876#0 590598876#1"/>
   </vehicle>
   <vehicle id="vehicle_99" type="type1" depart="403.17" color="1,0,0">
      <route edges="1120094388 130285156#0 130285156#1 130285156#2 130285156#3 -50799230#3 -50799230#2 -50799230#1 -50799230#0"/>
   </vehicle>
   <vehicle id="vehicle_100" type="type1" depart="407.24" color="1,0,0">
      <route edges="-590598876#1 -590598876#0 -130285156#3 -130285156#2 -130285156#1 -130285156#0 -1120094388"/>
   </vehicle>
   <vehicle id="vehicle_101" type="type1" depart="411.31" color="1,0,0">
      <route edges="1120094388 130285156#0 130285156#1 130285156#2 130285156#3 590598876#0 590598876#1"/>
   </vehicle>
   <vehicle id="vehicle_102" type="type1" depart="415.38" color="1,0,0">
      <route edges="50799230#0 50799230#1 50799230#2 50799230#3 -130285156#3 -130285156#2 -130285156#1 -130285156#0 -1120094388"/>
   </vehicle>
   <vehicle id="vehicle_103" type="type1" depart="419.46" color="1,0,0">
      <route edges="50799230#1 50799230#2 50799230#3 590598876#0 590598876#1"/>
   </vehicle>
   <vehicle id="vehicle_104" type="type1" depart="423.53" color="1,0,0">
      <route edges="1120094388 130285156#0 130285156#1 130285156#2 130285156#3 -50799230#3 -50799230#2 -50799230#1 -50799230#0"/>
   </vehicle>
   <vehicle id="vehicle_105" type="type1" depart="427.60" color="1,0,0">
      <route edges="-590598876#1 -590598876#0 -130285156#3 -130285156#2 -130285156#1 -130285156#0 -1120094388"/>
   </vehicle>
   <vehicle id="vehicle_106" type="type1" depart="431.67" color="1,0,0">
      <route edges="1120094388 130285156#0 130285156#1 130285156#2 130285156#3 590598876#0 590598876#1"/>
   </vehicle>
   <vehicle id="vehicle_107" type="type1" depart="435.75" color="1,0,0">
      <route edges="50799230#0 50799230#1 50799230#2 50799230#3 -130285156#3 -130285156#2 -130285156#1 -130285156#0 -1120094388"/>
   </vehicle>
   <vehicle id="vehicle_108" type="type1" depart="439.82" color="1,0,0">
      <route edges="50799230#1 50799230#2 50799230#3 590598876#0 590598876#1"/>
   </vehicle>
   <vehicle id="vehicle_109" type="type1" depart="443.89" color="1,0,0">
      <route edges="1120094388 130285156#0 130285156#1 130285156#2 130285156#3 -50799230#3 -50799230#2 -50799230#1 -50799230#0"/>
   </vehicle>
   <vehicle id="vehicle_110" type="type1" depart="447.96" color="1,0,0">
      <route edges="-590598876#1 -590598876#0 -130285156#3 -130285156#2 -130285156#1 -130285156#0 -1120094388"/>
   </vehicle>
   <vehicle id="vehicle_111" type="type1" depart="452.04" color="1,0,0">
      <route edges="1120094388 130285156#0 130285156#1 130285156#2 130285156#3 590598876#0 590598876#1"/>
   </vehicle>
   <vehicle id="vehicle_112" type="type1" depart="456.11" color="1,0,0">
      <route edges="50799230#0 50799230#1 50799230#2 50799230#3 -130285156#3 -130285156#2 -130285156#1 -130285156#0 -1120094388"/>
   </vehicle>
   <vehicle id="vehicle_113" type="type1" depart="460.18" color="1,0,0">
      <route edges="50799230#1 50799230#2 50799230#3 590598876#0 590598876#1"/>
   </vehicle>
   <vehicle id="vehicle_114" type="type1" depart="464.25" color="1,0,0">
      <route edges="1120094388 130285156#0 130285156#1 130285156#2 130285156#3 -50799230#3 -50799230#2 -50799230#1 -50799230#0"/>
   </vehicle>
   <vehicle id="vehicle_115" type="type1" depart="468.33" color="1,0,0">
      <route edges="-590598876#1 -590598876#0 -130285156#3 -130285156#2 -130285156#1 -130285156#0 -1120094388"/>
   </vehicle>
   <vehicle id="vehicle_116" type="type1" depart="472.40" color="1,0,0">
      <route edges="1120094388 130285156#0 130285156#1 130285156#2 130285156#3 590598876#0 590598876#1"/>
   </vehicle>
   <vehicle id="vehicle_117" type="type1" depart="476.47" color="1,0,0">
      <route edges="50799230#0 50799230#1 50799230#2 50799230#3 -130285156#3 -130285156#2 -130285156#1 -130285156#0 -1120094388"/>
   </vehicle>
   <vehicle id="vehicle_118" type="type1" depart="480.54" color="1,0,0">
      <route edges="50799230#1 50799230#2 50799230#3 590598876#0 590598876#1"/>
   </vehicle>
   <vehicle id="vehicle_119" type="type1" depart="484.62" color="1,0,0">
      <route edges="1120094388 130285156#0 130285156#1 130285156#2 130285156#3 -50799230#3 -50799230#2 -50799230#1 -50799230#0"/>
   </vehicle>
   <vehicle id="vehicle_120" type="type1" depart="488.69" color="1,0,0">
      <route edges="-590598876#1 -590598876#0 -130285156#3 -130285156#2 -130285156#1 -130285156#0 -1120094388"/>
   </vehicle>
   <vehicle id="vehicle_121" type="type1" depart="492.76" color="1,0,0">
      <route edges="1120094388 130285156#0 130285156#1 130285156#2 130285156#3 590598876#0 590598876#1"/>
   </vehicle>
   <vehicle id="vehicle_122" type="type1" depart="496.83" color="1,0,0">
      <route edges="50799230#0 50799230#1 50799230#2 50799230#3 -130285156#3 -130285156#2 -130285156#1 -130285156#0 -1120094388"/>
   </vehicle>
   <vehicle id="vehicle_123" type="type1" depart="500.90" color="1,0,0">
      <route edges="50799230#1 50799230#2 50799230#3 590598876#0 590598876#1"/>
   </vehicle>
   <vehicle id="vehicle_124" type="type1" depart="504.98" color="1,0,0">
      <route edges="1120094388 130285156#0 130285156#1 130285156#2 130285156#3 -50799230#3 -50799230#2 -50799230#1 -50799230#0"/>
   </vehicle>
   <vehicle id="vehicle_125" type="type1" depart="509.05" color="1,0,0">
      <route edges="-590598876#1 -590598876#0 -130285156#3 -130285156#2 -130285156#1 -130285156#0 -1120094388"/>
   </vehicle>
   <vehicle id="vehicle_126" type="type1" depart="513.12" color="1,0,0">
      <route edges="1120094388 130285156#0 130285156#1 130285156#2 130285156#3 590598876#0 590598876#1"/>
   </vehicle>
   <vehicle id="vehicle_127" type="type1" depart="517.19" color="1,0,0">
      <route edges="50799230#0 50799230#1 50799230#2 50799230#3 -130285156#3 -130285156#2 -130285156#1 -130285156#0 -1120094388"/>
   </vehicle>
   <vehicle id="vehicle_128" type="type1" depart="521.27" color="1,0,0">
      <route edges="50799230#1 50799230#2 50799230#3 590598876#0 590598876#1"/>
   </vehicle>
   <vehicle id="vehicle_129" type="type1" depart="525.34" color="1,0,0">
      <route edges="1120094388 130285156#0 130285156#1 130285156#2 130285156#3 -50799230#3 -50799230#2 -50799230#1 -50799230#0"/>
   </vehicle>
   <vehicle id="vehicle_130" type="type1" depart="529.41" color="1,0,0">
      <route edges="-590598876#1 -590598876#0 -130285156#3 -130285156#2 -130285156#1 -130285156#0 -1120094388"/>
   </vehicle>
   <vehicle id="vehicle_131" type="type1" depart="533.48" color="1,0,0">
      <route edges="1120094388 130285156#0 130285156#1 130285156#2 130285156#3 590598876#0 590598876#1"/>
   </vehicle>
   <vehicle id="vehicle_132" type="type1" depart="537.56" color="1,0,0">
      <route edges="50799230#0 50799230#1 50799230#2 50799230#3 -130285156#3 -130285156#2 -130285156#1 -130285156#0 -1120094388"/>
   </vehicle>
   <vehicle id="vehicle_133" type="type1" depart="541.63" color="1,0,0">
      <route edges="50799230#1 50799230#2 50799230#3 590598876#0 590598876#1"/>
   </vehicle>
   <vehicle id="vehicle_134" type="type1" depart="545.70" color="1,0,0">
      <route edges="1120094388 130285156#0 130285156#1 130285156#2 130285156#3 -50799230#3 -50799230#2 -50799230#1 -50799230#0"/>
   </vehicle>
   <vehicle id="vehicle_135" type="type1" depart="549.77" color="1,0,0">
      <route edges="-590598876#1 -590598876#0 -130285156#3 -130285156#2 -130285156#1 -130285156#0 -1120094388"/>
   </vehicle>
   <vehicle id="vehicle_136" type="type1" depart="553.85" color="1,0,0">
      <route edges="1120094388 130285156#0 130285156#1 130285156#2 130285156#3 590598876#0 590598876#1"/>
   </vehicle>
   <vehicle id="vehicle_137" type="type1" depart="557.92" color="1,0,0">
      <route edges="50799230#1 50799230#2 50799230#3 590598876#0 590598876#1"/>
   </vehicle>
   <vehicle id="vehicle_138" type="type1" depart="561.99" color="1,0,0">
      <route edges="1120094388 130285156#0 130285156#1 130285156#2 130285156#3 -50799230#3 -50799230#2 -50799230#1 -50799230#0"/>
   </vehicle>
   <vehicle id="vehicle_139" type="type1" depart="566.06" color="1,0,0">
      <route edges="-590598876#1 -590598876#0 -130285156#3 -130285156#2 -130285156#1 -130285156#0 -1120094388"/>
   </vehicle>
   <vehicle id="vehicle_140" type="type1" depart="570.14" color="1,0,0">
      <route edges="1120094388 130285156#0 130285156#1 130285156#2 130285156#3 590598876#0 590598876#1"/>
   </vehicle>
   <vehicle id="vehicle_141" type="type1" depart="574.21" color="1,0,0">
      <route edges="50799230#1 50799230#2 50799230#3 590598876#0 590598876#1"/>
   </vehicle>
   <vehicle id="vehicle_142" type="type1" depart="578.28" color="1,0,0">
      <route edges="1120094388 130285156#0 130285156#1 130285156#2 130285156#3 -50799230#3 -50799230#2 -50799230#1 -50799230#0"/>
   </vehicle>
   <vehicle id="vehicle_143" type="type1" depart="582.35" color="1,0,0">
      <route edges="-590598876#1 -590598876#0 -130285156#3 -130285156#2 -130285156#1 -130285156#0 -1120094388"/>
   </vehicle>
   <vehicle id="vehicle_144" type="type1" depart="586.43" color="1,0,0">
      <route edges="1120094388 130285156#0 130285156#1 130285156#2 130285156#3 590598876#0 590598876#1"/>
   </vehicle>
   <vehicle id="vehicle_145" type="type1" depart="590.50" color="1,0,0">
      <route edges="50799230#1 50799230#2 50799230#3 590598876#0 590598876#1"/>
   </vehicle>
   <vehicle id="vehicle_146" type="type1" depart="594.57" color="1,0,0">
      <route edges="1120094388 130285156#0 130285156#1 130285156#2 130285156#3 -50799230#3 -50799230#2 -50799230#1 -50799230#0"/>
   </vehicle>
   <vehicle id="vehicle_147" type="type1" depart="598.64" color="1,0,0">
      <route edges="-590598876#1 -590598876#0 -130285156#3 -130285156#2 -130285156#1 -130285156#0 -1120094388"/>
   </vehicle>
   <vehicle id="vehicle_148" type="type1" depart="602.71" color="1,0,0">
      <route edges="1120094388 130285156#0 130285156#1 130285156#2 130285156#3 590598876#0 590598876#1"/>
   </vehicle>
   <vehicle id="vehicle_149" type="type1" depart="606.79" color="1,0,0">
      <route edges="50799230#1 50799230#2 50799230#3 590598876#0 590598876#1"/>
   </vehicle>
   <vehicle id="vehicle_150" type="type1" depart="610.86" color="1,0,0">
      <route edges="1120094388 130285156#0 130285156#1 130285156#2 130285156#3 -50799230#3 -50799230#2 -50799230#1 -50799230#0"/>
   </vehicle>
   <vehicle id="vehicle_151" type="type1" depart="614.93" color="1,0,0">
      <route edges="-590598876#1 -590598876#0 -130285156#3 -130285156#2 -130285156#1 -130285156#0 -1120094388"/>
   </vehicle>
   <vehicle id="vehicle_152" type="type1" depart="619.00" color="1,0,0">