<?xml version="1.0" ?>
<routes>
   <vType id="type1" accel="0.8" decel="4.5" sigma="0.5" length="5" maxSpeed="70"/>
   <vehicle id="south_to_north_0" type="type1" depart="0.0" color="1,0,0">
      <route edges="-590598876#1 -590598876#0 -130285156#3 -130285156#2 -130285156#1 -130285156#0 -1120094388"/>
   </vehicle>
   <vehicle id="south_to_north_1" type="type1" depart="14.35" color="1,0,0">
      <route edges="-590598876#1 -590598876#0 -130285156#3 -130285156#2 -130285156#1 -130285156#0 -1120094388"/>
   </vehicle>
   <vehicle id="south_to_north_2" type="type1" depart="28.7" color="1,0,0">
      <route edges="-590598876#1 -590598876#0 -130285156#3 -130285156#2 -130285156#1 -130285156#0 -1120094388"/>
   </vehicle>
   <vehicle id="south_to_north_3" type="type1" depart="43.05" color="1,0,0">
      <route edges="-590598876#1 -590598876#0 -130285156#3 -130285156#2 -130285156#1 -130285156#0 -1120094388"/>
   </vehicle>
   <vehicle id="south_to_north_4" type="type1" depart="57.4" color="1,0,0">
      <route edges="-590598876#1 -590598876#0 -130285156#3 -130285156#2 -130285156#1 -130285156#0 -1120094388"/>
   </vehicle>
   <vehicle id="south_to_north_5" type="type1" depart="71.75" color="1,0,0">
      <route edges="-590598876#1 -590598876#0 -130285156#3 -130285156#2 -130285156#1 -130285156#0 -1120094388"/>
   </vehicle>
   <vehicle id="south_to_north_6" type="type1" depart="86.1" color="1,0,0">
      <route edges="-590598876#1 -590598876#0 -130285156#3 -130285156#2 -130285156#1 -130285156#0 -1120094388"/>
   </vehicle>
   <vehicle id="south_to_north_7" type="type1" depart="100.45" color="1,0,0">
      <route edges="-590598876#1 -590598876#0 -130285156#3 -130285156#2 -130285156#1 -130285156#0 -1120094388"/>
   </vehicle>
   <vehicle id="south_to_north_8" type="type1" depart="114.8" color="1,0,0">
      <route edges="-590598876#1 -590598876#0 -130285156#3 -130285156#2 -130285156#1 -130285156#0 -1120094388"/>
   </vehicle>
   <vehicle id="south_to_north_9" type="type1" depart="129.15" color="1,0,0">
      <route edges="-590598876#1 -590598876#0 -130285156#3 -130285156#2 -130285156#1 -130285156#0 -1120094388"/>
   </vehicle>
   <vehicle id="south_to_north_10" type="type1" depart="143.5" color="1,0,0">
      <route edges="-590598876#1 -590598876#0 -130285156#3 -130285156#2 -130285156#1 -130285156#0 -1120094388"/>
   </vehicle>
   <vehicle id="south_to_north_11" type="type1" depart="157.85" color="1,0,0">
      <route edges="-590598876#1 -590598876#0 -130285156#3 -130285156#2 -130285156#1 -130285156#0 -1120094388"/>
   </vehicle>
   <vehicle id="south_to_north_12" type="type1" depart="172.2" color="1,0,0">
      <route edges="-590598876#1 -590598876#0 -130285156#3 -130285156#2 -130285156#1 -130285156#0 -1120094388"/>
   </vehicle>
   <vehicle id="south_to_north_13" type="type1" depart="186.54999999999998" color="1,0,0">
      <route edges="-590598876#1 -590598876#0 -130285156#3 -130285156#2 -130285156#1 -130285156#0 -1120094388"/>
   </vehicle>
   <vehicle id="south_to_north_14" type="type1" depart="200.9" color="1,0,0">
      <route edges="-590598876#1 -590598876#0 -130285156#3 -130285156#2 -130285156#1 -130285156#0 -1120094388"/>
   </vehicle>
   <vehicle id="south_to_north_15" type="type1" depart="215.25" color="1,0,0">
      <route edges="-590598876#1 -590598876#0 -130285156#3 -130285156#2 -130285156#1 -130285156#0 -1120094388"/>
   </vehicle>
   <vehicle id="south_to_north_16" type="type1" depart="229.6" color="1,0,0">
      <route edges="-590598876#1 -590598876#0 -130285156#3 -130285156#2 -130285156#1 -130285156#0 -1120094388"/>
   </vehicle>
   <vehicle id="south_to_north_17" type="type1" depart="243.95" color="1,0,0">
      <route edges="-590598876#1 -590598876#0 -130285156#3 -130285156#2 -130285156#1 -130285156#0 -1120094388"/>
   </vehicle>
   <vehicle id="south_to_north_18" type="type1" depart="258.3" color="1,0,0">
      <route edges="-590598876#1 -590598876#0 -130285156#3 -130285156#2 -130285156#1 -130285156#0 -1120094388"/>
   </vehicle>
   <vehicle id="south_to_north_19" type="type1" depart="272.65" color="1,0,0">
      <route edges="-590598876#1 -590598876#0 -130285156#3 -130285156#2 -130285156#1 -130285156#0 -1120094388"/>
   </vehicle>
   <vehicle id="south_to_north_20" type="type1" depart="287.0" color="1,0,0">
      <route edges="-590598876#1 -590598876#0 -130285156#3 -130285156#2 -130285156#1 -130285156#0 -1120094388"/>
   </vehicle>
   <vehicle id="south_to_north_21" type="type1" depart="301.34999999999997" color="1,0,0">
      <route edges="-590598876#1 -590598876#0 -130285156#3 -130285156#2 -130285156#1 -130285156#0 -1120094388"/>
   </vehicle>
   <vehicle id="south_to_north_22" type="type1" depart="315.7" color="1,0,0">
      <route edges="-590598876#1 -590598876#0 -130285156#3 -130285156#2 -130285156#1 -130285156#0 -1120094388"/>
   </vehicle>
   <vehicle id="south_to_north_23" type="type1" depart="330.05" color="1,0,0">
      <route edges="-590598876#1 -590598876#0 -130285156#3 -130285156#2 -130285156#1 -130285156#0 -1120094388"/>
   </vehicle>
   <vehicle id="south_to_north_24" type="type1" depart="344.4" color="1,0,0">
      <route edges="-590598876#1 -590598876#0 -130285156#3 -130285156#2 -130285156#1 -130285156#0 -1120094388"/>
   </vehicle>
   <vehicle id="south_to_north_25" type="type1" depart="358.75" color="1,0,0">
      <route edges="-590598876#1 -590598876#0 -130285156#3 -130285156#2 -130285156#1 -130285156#0 -1120094388"/>
   </vehicle>
   <vehicle id="south_to_north_26" type="type1" depart="373.09999999999997" color="1,0,0">
      <route edges="-590598876#1 -590598876#0 -130285156#3 -130285156#2 -130285156#1 -130285156#0 -1120094388"/>
   </vehicle>
   <vehicle id="south_to_north_27" type="type1" depart="387.45" color="1,0,0">
      <route edges="-590598876#1 -590598876#0 -130285156#3 -130285156#2 -130285156#1 -130285156#0 -1120094388"/>
   </vehicle>
   <vehicle id="south_to_north_28" type="type1" depart="401.8" color="1,0,0">
      <route edges="-590598876#1 -590598876#0 -130285156#3 -130285156#2 -130285156#1 -130285156#0 -1120094388"/>
   </vehicle>
   <vehicle id="south_to_north_29" type="type1" depart="416.15" color="1,0,0">
      <route edges="-590598876#1 -590598876#0 -130285156#3 -130285156#2 -130285156#1 -130285156#0 -1120094388"/>
   </vehicle>
   <vehicle id="south_to_north_30" type="type1" depart="430.5" color="1,0,0">
      <route edges="-590598876#1 -590598876#0 -130285156#3 -130285156#2 -130285156#1 -130285156#0 -1120094388"/>
   </vehicle>
   <vehicle id="south_to_north_31" type="type1" depart="444.84999999999997" color="1,0,0">
      <route edges="-590598876#1 -590598876#0 -130285156#3 -130285156#2 -130285156#1 -130285156#0 -1120094388"/>
   </vehicle>
   <vehicle id="south_to_north_32" type="type1" depart="459.2" color="1,0,0">
      <route edges="-590598876#1 -590598876#0 -130285156#3 -130285156#2 -130285156#1 -130285156#0 -1120094388"/>
   </vehicle>
   <vehicle id="south_to_north_33" type="type1" depart="473.55" color="1,0,0">
      <route edges="-590598876#1 -590598876#0 -130285156#3 -130285156#2 -130285156#1 -130285156#0 -1120094388"/>
   </vehicle>
   <vehicle id="south_to_north_34" type="type1" depart="487.9" color="1,0,0">
      <route edges="-590598876#1 -590598876#0 -130285156#3 -130285156#2 -130285156#1 -130285156#0 -1120094388"/>
   </vehicle>
   <vehicle id="south_to_north_35" type="type1" depart="502.25" color="1,0,0">
      <route edges="-590598876#1 -590598876#0 -130285156#3 -130285156#2 -130285156#1 -130285156#0 -1120094388"/>
   </vehicle>
   <vehicle id="south_to_north_36" type="type1" depart="516.6" color="1,0,0">
      <route edges="-590598876#1 -590598876#0 -130285156#3 -130285156#2 -130285156#1 -130285156#0 -1120094388"/>
   </vehicle>
   <vehicle id="south_to_north_37" type="type1" depart="530.9499999999999" color="1,0,0">
      <route edges="-590598876#1 -590598876#0 -130285156#3 -130285156#2 -130285156#1 -130285156#0 -1120094388"/>
   </vehicle>
   <vehicle id="south_to_north_38" type="type1" depart="545.3" color="1,0,0">
      <route edges="-590598876#1 -590598876#0 -130285156#3 -130285156#2 -130285156#1 -130285156#0 -1120094388"/>
   </vehicle>
   <vehicle id="south_to_north_39" type="type1" depart="559.65" color="1,0,0">
      <route edges="-590598876#1 -590598876#0 -130285156#3 -130285156#2 -130285156#1 -130285156#0 -1120094388"/>
   </vehicle>
   <vehicle id="south_to_north_40" type="type1" depart="574.0" color="1,0,0">
      <route edges="-590598876#1 -590598876#0 -130285156#3 -130285156#2 -130285156#1 -130285156#0 -1120094388"/>
   </vehicle>
   <vehicle id="south_to_north_41" type="type1" depart="588.35" color="1,0,0">
      <route edges="-590598876#1 -590598876#0 -130285156#3 -130285156#2 -130285156#1 -130285156#0 -1120094388"/>
   </vehicle>
   <vehicle id="south_to_north_42" type="type1" depart="602.6999999999999" color="1,0,0">
      <route edges="-590598876#1 -590598876#0 -130285156#3 -130285156#2 -130285156#1 -130285156#0 -1120094388"/>
   </vehicle>
   <vehicle id="south_to_north_43" type="type1" depart="617.05" color="1,0,0">
      <route edges="-590598876#1 -590598876#0 -130285156#3 -130285156#2 -130285156#1 -130285156#0 -1120094388"/>
   </vehicle>
   <vehicle id="south_to_north_44" type="type1" depart="631.4" color="1,0,0">
      <route edges="-590598876#1 -590598876#0 -130285156#3 -130285156#2 -130285156#1 -130285156#0 -1120094388"/>
   </vehicle>
   <vehicle id="south_to_north_45" type="type1" depart="645.75" color="1,0,0">
      <route edges="-590598876#1 -590598876#0 -130285156#3 -130285156#2 -130285156#1 -130285156#0 -1120094388"/>
   </vehicle>
   <vehicle id="south_to_north_46" type="type1" depart="660.1" color="1,0,0">
      <route edges="-590598876#1 -590598876#0 -130285156#3 -130285156#2 -130285156#1 -130285156#0 -1120094388"/>
   </vehicle>
   <vehicle id="south_to_north_47" type="type1" depart="674.4499999999999" color="1,0,0">
      <route edges="-590598876#1 -590598876#0 -130285156#3 -130285156#2 -130285156#1 -130285156#0 -1120094388"/>
   </vehicle>
   <vehicle id="south_to_north_48" type="type1" depart="688.8" color="1,0,0">
      <route edges="-590598876#1 -590598876#0 -130285156#3 -130285156#2 -130285156#1 -130285156#0 -1120094388"/>
   </vehicle>
   <vehicle id="south_to_north_49" type="type1" depart="703.15" color="1,0,0">
      <route edges="-590598876#1 -590598876#0 -130285156#3 -130285156#2 -130285156#1 -130285156#0 -1120094388"/>
   </vehicle>
   <vehicle id="south_to_north_50" type="type1" depart="717.5" color="1,0,0">
      <route edges="-590598876#1 -590598876#0 -130285156#3 -130285156#2 -130285156#1 -130285156#0 -1120094388"/>
   </vehicle>
   <vehicle id="south_to_north_51" type="type1" depart="731.85" color="1,0,0">
      <route edges="-590598876#1 -590598876#0 -130285156#3 -130285156#2 -130285156#1 -130285156#0 -1120094388"/>
   </vehicle>
   <vehicle id="south_to_north_52" type="type1" depart="746.1999999999999" color="1,0,0">
      <route edges="-590598876#1 -590598876#0 -130285156#3 -130285156#2 -130285156#1 -130285156#0 -1120094388"/>
   </vehicle>
   <vehicle id="south_to_north_53" type="type1" depart="760.55" color="1,0,0">
      <route edges="-590598876#1 -590598876#0 -130285156#3 -130285156#2 -130285156#1 -130285156#0 -1120094388"/>
   </vehicle>
   <vehicle id="south_to_north_54" type="type1" depart="774.9" color="1,0,0">
      <route edges="-590598876#1 -590598876#0 -130285156#3 -130285156#2 -130285156#1 -130285156#0 -1120094388"/>
   </vehicle>
   <vehicle id="south_to_north_55" type="type1" depart="789.25" color="1,0,0">
      <route edges="-590598876#1 -590598876#0 -130285156#3 -130285156#2 -130285156#1 -130285156#0 -1120094388"/>
   </vehicle>
   <vehicle id="south_to_north_56" type="type1" depart="803.6" color="1,0,0">
      <route edges="-590598876#1 -590598876#0 -130285156#3 -130285156#2 -130285156#1 -130285156#0 -1120094388"/>
   </vehicle>
   <vehicle id="south_to_north_57" type="type1" depart="817.9499999999999" color="1,0,0">
      <route edges="-590598876#1 -590598876#0 -130285156#3 -130285156#2 -130285156#1 -130285156#0 -1120094388"/>
   </vehicle>
   <vehicle id="south_to_north_58" type="type1" depart="832.3" color="1,0,0">
      <route edges="-590598876#1 -590598876#0 -130285156#3 -130285156#2 -130285156#1 -130285156#0 -1120094388"/>
   </vehicle>
   <vehicle id="south_to_north_59" type="type1" depart="846.65" color="1,0,0">
      <route edges="-590598876#1 -590598876#0 -130285156#3 -130285156#2 -130285156#1 -130285156#0 -1120094388"/>
   </vehicle>
   <vehicle id="south_to_north_60" type="type1" depart="861.0" color="1,0,0">
      <route edges="-590598876#1 -590598876#0 -130285156#3 -130285156#2 -130285156#1 -130285156#0 -1120094388"/>
   </vehicle>
   <vehicle id="south_to_north_61" type="type1" depart="875.35" color="1,0,0">
      <route edges="-590598876#1 -590598876#0 -130285156#3 -130285156#2 -130285156#1 -130285156#0 -1120094388"/>
   </vehicle>
   <vehicle id="south_to_north_62" type="type1" depart="889.6999999999999" color="1,0,0">
      <route edges="-590598876#1 -590598876#0 -130285156#3 -130285156#2 -130285156#1 -130285156#0 -1120094388"/>
   </vehicle>
   <vehicle id="south_to_north_63" type="type1" depart="904.05" color="1,0,0">
      <route edges="-590598876#1 -590598876#0 -130285156#3 -130285156#2 -130285156#1 -130285156#0 -1120094388"/>
   </vehicle>
   <vehicle id="south_to_north_64" type="type1" depart="918.4" color="1,0,0">
      <route edges="-590598876#1 -590598876#0 -130285156#3 -130285156#2 -130285156#1 -130285156#0 -1120094388"/>
   </vehicle>
   <vehicle id="south_to_north_65" type="type1" depart="932.75" color="1,0,0">
      <route edges="-590598876#1 -590598876#0 -130285156#3 -130285156#2 -130285156#1 -130285156#0 -1120094388"/>
   </vehicle>
   <vehicle id="south_to_north_66" type="type1" depart="947.1" color="1,0,0">
      <route edges="-590598876#1 -590598876#0 -130285156#3 -130285156#2 -130285156#1 -130285156#0 -1120094388"/>
   </vehicle>
   <vehicle id="south_to_north_67" type="type1" depart="961.4499999999999" color="1,0,0">
      <route edges="-590598876#1 -590598876#0 -130285156#3 -130285156#2 -130285156#1 -130285156#0 -1120094388"/>
   </vehicle>
   <vehicle id="south_to_north_68" type="type1" depart="975.8" color="1,0,0">
      <route edges="-590598876#1 -590598876#0 -130285156#3 -130285156#2 -130285156#1 -130285156#0 -1120094388"/>
   </vehicle>
   <vehicle id="south_to_north_69" type="type1" depart="990.15" color="1,0,0">
      <route edges="-590598876#1 -590598876#0 -130285156#3 -130285156#2 -130285156#1 -130285156#0 -1120094388"/>
   </vehicle>
   <vehicle id="south_to_north_70" type="type1" depart="1004.5" color="1,0,0">
      <route edges="-590598876#1 -590598876#0 -130285156#3 -130285156#2 -130285156#1 -130285156#0 -1120094388"/>
   </vehicle>
   <vehicle id="south_to_north_71" type="type1" depart="1018.85" color="1,0,0">
      <route edges="-590598876#1 -590598876#0 -130285156#3 -130285156#2 -130285156#1 -130285156#0 -1120094388"/>
   </vehicle>
   <vehicle id="south_to_north_72" type="type1" depart="1033.2" color="1,0,0">
      <route edges="-590598876#1 -590598876#0 -130285156#3 -130285156#2 -130285156#1 -130285156#0 -1120094388"/>
   </vehicle>
   <vehicle id="south_to_north_73" type="type1" depart="1047.55" color="1,0,0">
      <route edges="-590598876#1 -590598876#0 -130285156#3 -130285156#2 -130285156#1 -130285156#0 -1120094388"/>
   </vehicle>
   <vehicle id="south_to_north_74" type="type1" depart="1061.8999999999999" color="1,0,0">
      <route edges="-590598876#1 -590598876#0 -130285156#3 -130285156#2 -130285156#1 -130285156#0 -1120094388"/>
   </vehicle>
   <vehicle id="south_to_north_75" type="type1" depart="1076.25" color="1,0,0">
      <route edges="-590598876#1 -590598876#0 -130285156#3 -130285156#2 -130285156#1 -130285156#0 -1120094388"/>
   </vehicle>
   <vehicle id="south_to_north_76" type="type1" depart="1090.6" color="1,0,0">
      <route edges="-590598876#1 -590598876#0 -130285156#3 -130285156#2 -130285156#1 -130285156#0 -1120094388"/>
   </vehicle>
   <vehicle id="south_to_north_77" type="type1" depart="1104.95" color="1,0,0">
      <route edges="-590598876#1 -590598876#0 -130285156#3 -130285156#2 -130285156#1 -130285156#0 -1120094388"/>
   </vehicle>
   <vehicle id="south_to_north_78" type="type1" depart="1119.3" color="1,0,0">
      <route edges="-590598876#1 -590598876#0 -130285156#3 -130285156#2 -130285156#1 -130285156#0 -1120094388"/>
   </vehicle>
   <vehicle id="south_to_north_79" type="type1" depart="1133.6499999999999" color="1,0,0">
      <route edges="-590598876#1 -590598876#0 -130285156#3 -130285156#2 -130285156#1 -130285156#0 -1120094388"/>
   </vehicle>
   <vehicle id="south_to_north_80" type="type1" depart="1148.0" color="1,0,0">
      <route edges="-590598876#1 -590598876#0 -130285156#3 -130285156#2 -130285156#1 -130285156#0 -1120094388"/>
   </vehicle>
   <vehicle id="south_to_north_81" type="type1" depart="1162.35" color="1,0,0">
      <route edges="-590598876#1 -590598876#0 -130285156#3 -130285156#2 -130285156#1 -130285156#0 -1120094388"/>
   </vehicle>
   <vehicle id="south_to_north_82" type="type1" depart="1176.7" color="1,0,0">
      <route edges="-590598876#1 -590598876#0 -130285156#3 -130285156#2 -130285156#1 -130285156#0 -1120094388"/>
   </vehicle>
   <vehicle id="south_to_north_83" type="type1" depart="1191.05" color="1,0,0">
      <route edges="-590598876#1 -590598876#0 -130285156#3 -130285156#2 -130285156#1 -130285156#0 -1120094388"/>
   </vehicle>
   <vehicle id="south_to_north_84" type="type1" depart="1205.3999999999999" color="1,0,0">
      <route edges="-590598876#1 -590598876#0 -130285156#3 -130285156#2 -130285156#1 -130285156#0 -1120094388"/>
   </vehicle>
   <vehicle id="south_to_north_85" type="type1" depart="1219.75" color="1,0,0">
      <route edges="-590598876#1 -590598876#0 -130285156#3 -130285156#2 -130285156#1 -130285156#0 -1120094388"/>
   </vehicle>
   <vehicle id="south_to_north_86" type="type1" depart="1234.1" color="1,0,0">
      <route edges="-590598876#1 -590598876#0 -130285156#3 -130285156#2 -130285156#1 -130285156#0 -1120094388"/>
   </vehicle>
   <vehicle id="south_to_north_87" type="type1" depart="1248.45" color="1,0,0">
      <route edges="-590598876#1 -590598876#0 -130285156#3 -130285156#2 -130285156#1 -130285156#0 -1120094388"/>
   </vehicle>
   <vehicle id="south_to_north_88" type="type1" depart="1262.8" color="1,0,0">
      <route edges="-590598876#1 -590598876#0 -130285156#3 -130285156#2 -130285156#1 -130285156#0 -1120094388"/>
   </vehicle>
   <vehicle id="south_to_north_89" type="type1" depart="1277.1499999999999" color="1,0,0">
      <route edges="-590598876#1 -590598876#0 -130285156#3 -130285156#2 -130285156#1 -130285156#0 -1120094388"/>
   </vehicle>
   <vehicle id="south_to_north_90" type="type1" depart="1291.5" color="1,0,0">
      <route edges="-590598876#1 -590598876#0 -130285156#3 -130285156#2 -130285156#1 -130285156#0 -1120094388"/>
   </vehicle>
   <vehicle id="south_to_north_91" type="type1" depart="1305.85" color="1,0,0">
      <route edges="-590598876#1 -590598876#0 -130285156#3 -130285156#2 -130285156#1 -130285156#0 -1120094388"/>
   </vehicle>
   <vehicle id="south_to_north_92" type="type1" depart="1320.2" color="1,0,0">
      <route edges="-590598876#1 -590598876#0 -130285156#3 -130285156#2 -130285156#1 -130285156#0 -1120094388"/>
   </vehicle>
   <vehicle id="south_to_north_93" type="type1" depart="1334.55" color="1,0,0">
      <route edges="-590598876#1 -590598876#0 -130285156#3 -130285156#2 -130285156#1 -130285156#0 -1120094388"/>
   </vehicle>
   <vehicle id="south_to_north_94" type="type1" depart="1348.8999999999999" color="1,0,0">
      <route edges="-590598876#1 -590598876#0 -130285156#3 -130285156#2 -130285156#1 -130285156#0 -1120094388"/>
   </vehicle>
   <vehicle id="south_to_north_95" type="type1" depart="1363.25" color="1,0,0">
      <route edges="-590598876#1 -590598876#0 -130285156#3 -130285156#2 -130285156#1 -130285156#0 -1120094388"/>
   </vehicle>
   <vehicle id="south_to_north_96" type="type1" depart="1377.6" color="1,0,0">
      <route edges="-590598876#1 -590598876#0 -130285156#3 -130285156#2 -130285156#1 -130285156#0 -1120094388"/>
   </vehicle>
   <vehicle id="south_to_north_97" type="type1" depart="1391.95" color="1,0,0">
      <route edges="-590598876#1 -590598876#0 -130285156#3 -130285156#2 -130285156#1 -130285156#0 -1120094388"/>
   </vehicle>
   <vehicle id="south_to_north_98" type="type1" depart="1406.3" color="1,0,0">
      <route edges="-590598876#1 -590598876#0 -130285156#3 -130285156#2 -130285156#1 -130285156#0 -1120094388"/>
   </vehicle>
   <vehicle id="south_to_north_99" type="type1" depart="1420.6499999999999" color="1,0,0">
      <route edges="-590598876#1 -590598876#0 -130285156#3 -130285156#2 -130285156#1 -130285156#0 -1120094388"/>
   </vehicle>
   <vehicle id="south_to_north_100" type="type1" depart="1435.0" color="1,0,0">
      <route edges="-590598876#1 -590598876#0 -130285156#3 -130285156#2 -130285156#1 -130285156#0 -1120094388"/>
   </vehicle>
   <vehicle id="south_to_north_101" type="type1" depart="1449.35" color="1,0,0">
      <route edges="-590598876#1 -590598876#0 -130285156#3 -130285156#2 -130285156#1 -130285156#0 -1120094388"/>
   </vehicle>
   <vehicle id="south_to_north_102" type="type1" depart="1463.7" color="1,0,0">
      <route edges="-590598876#1 -590598876#0 -130285156#3 -130285156#2 -130285156#1 -130285156#0 -1120094388"/>
   </vehicle>
   <vehicle id="south_to_north_103" type="type1" depart="1478.05" color="1,0,0">
      <route edges="-590598876#1 -590598876#0 -130285156#3 -130285156#2 -130285156#1 -130285156#0 -1120094388"/>
   </vehicle>
   <vehicle id="south_to_north_104" type="type1" depart="1492.3999999999999" color="1,0,0">
      <route edges="-590598876#1 -590598876#0 -130285156#3 -130285156#2 -130285156#1 -130285156#0 -1120094388"/>
   </vehicle>
   <vehicle id="south_to_north_105" type="type1" depart="1506.75" color="1,0,0">
      <route edges="-590598876#1 -590598876#0 -130285156#3 -130285156#2 -130285156#1 -130285156#0 -1120094388"/>
   </vehicle>
   <vehicle id="south_to_north_106" type="type1" depart="1521.1" color="1,0,0">
      <route edges="-590598876#1 -590598876#0 -130285156#3 -130285156#2 -130285156#1 -130285156#0 -1120094388"/>
   </vehicle>
   <vehicle id="south_to_north_107" type="type1" depart="1535.45" color="1,0,0">
      <route edges="-590598876#1 -590598876#0 -130285156#3 -130285156#2 -130285156#1 -130285156#0 -1120094388"/>
   </vehicle>
   <vehicle id="south_to_north_108" type="type1" depart="1549.8" color="1,0,0">
      <route edges="-590598876#1 -590598876#0 -130285156#3 -130285156#2 -130285156#1 -130285156#0 -1120094388"/>
   </vehicle>
   <vehicle id="south_to_north_109" type="type1" depart="1564.1499999999999" color="1,0,0">
      <route edges="-590598876#1 -590598876#0 -130285156#3 -130285156#2 -130285156#1 -130285156#0 -1120094388"/>
   </vehicle>
   <vehicle id="south_to_north_110" type="type1" depart="1578.5" color="1,0,0">
      <route edges="-590598876#1 -590598876#0 -130285156#3 -130285156#2 -130285156#1 -130285156#0 -1120094388"/>
   </vehicle>
   <vehicle id="south_to_north_111" type="type1" depart="1592.85" color="1,0,0">
      <route edges="-590598876#1 -590598876#0 -130285156#3 -130285156#2 -130285156#1 -130285156#0 -1120094388"/>
   </vehicle>
   <vehicle id="south_to_north_112" type="type1" depart="1607.2" color="1,0,0">
      <route edges="-590598876#1 -590598876#0 -130285156#3 -130285156#2 -130285156#1 -130285156#0 -1120094388"/>
   </vehicle>
   <vehicle id="south_to_north_113" type="type1" depart="1621.55" color="1,0,0">
      <route edges="-590598876#1 -590598876#0 -130285156#3 -130285156#2 -130285156#1 -130285156#0 -1120094388"/>
   </vehicle>
   <vehicle id="south_to_north_114" type="type1" depart="1635.8999999999999" color="1,0,0">
      <route edges="-590598876#1 -590598876#0 -130285156#3 -130285156#2 -130285156#1 -130285156#0 -1120094388"/>
   </vehicle>
   <vehicle id="south_to_north_115" type="type1" depart="1650.25" color="1,0,0">
      <route edges="-590598876#1 -590598876#0 -130285156#3 -130285156#2 -130285156#1 -130285156#0 -1120094388"/>
   </vehicle>
   <vehicle id="south_to_north_116" type="type1" depart="1664.6" color="1,0,0">
      <route edges="-590598876#1 -590598876#0 -130285156#3 -130285156#2 -130285156#1 -130285156#0 -1120094388"/>
   </vehicle>
   <vehicle id="south_to_north_117" type="type1" depart="1678.95" color="1,0,0">
      <route edges="-590598876#1 -590598876#0 -130285156#3 -130285156#2 -130285156#1 -130285156#0 -1120094388"/>
   </vehicle>
   <vehicle id="south_to_north_118" type="type1" depart="1693.3" color="1,0,0">
      <route edges="-590598876#1 -590598876#0 -130285156#3 -130285156#2 -130285156#1 -130285156#0 -1120094388"/>
   </vehicle>
   <vehicle id="south_to_north_119" type="type1" depart="1707.6499999999999" color="1,0,0">
      <route edges="-590598876#1 -590598876#0 -130285156#3 -130285156#2 -130285156#1 -130285156#0 -1120094388"/>
   </vehicle>
   <vehicle id="south_to_north_120" type="type1" depart="1722.0" color="1,0,0">
      <route edges="-590598876#1 -590598876#0 -130285156#3 -130285156#2 -130285156#1 -130285156#0 -1120094388"/>
   </vehicle>
   <vehicle id="south_to_north_121" type="type1" depart="1736.35" color="1,0,0">
      <route edges="-590598876#1 -590598876#0 -130285156#3 -130285156#2 -130285156#1 -130285156#0 -1120094388"/>
   </vehicle>
   <vehicle id="south_to_north_122" type="type1" depart="1750.7" color="1,0,0">
      <route edges="-590598876#1 -590598876#0 -130285156#3 -130285156#2 -130285156#1 -130285156#0 -1120094388"/>
   </vehicle>
   <vehicle id="south_to_north_123" type="type1" depart="1765.05" color="1,0,0">
      <route edges="-590598876#1 -590598876#0 -130285156#3 -130285156#2 -130285156#1 -130285156#0 -1120094388"/>
   </vehicle>
   <vehicle id="south_to_north_124" type="type1" depart="1779.3999999999999" color="1,0,0">
      <route edges="-590598876#1 -590598876#0 -130285156#3 -130285156#2 -130285156#1 -130285156#0 -1120094388"/>
   </vehicle>
   <vehicle id="south_to_north_125" type="type1" depart="1793.75" color="1,0,0">
      <route edges="-590598876#1 -590598876#0 -130285156#3 -130285156#2 -130285156#1 -130285156#0 -1120094388"/>
   </vehicle>
   <vehicle id="south_to_north_126" type="type1" depart="1808.1" color="1,0,0">
      <route edges="-590598876#1 -590598876#0 -130285156#3 -130285156#2 -130285156#1 -130285156#0 -1120094388"/>
   </vehicle>
   <vehicle id="south_to_north_127" type="type1" depart="1822.45" color="1,0,0">
      <route edges="-590598876#1 -590598876#0 -130285156#3 -130285156#2 -130285156#1 -130285156#0 -1120094388"/>
   </vehicle>
   <vehicle id="south_to_north_128" type="type1" depart="1836.8" color="1,0,0">
      <route edges="-590598876#1 -590598876#0 -130285156#3 -130285156#2 -130285156#1 -130285156#0 -1120094388"/>
   </vehicle>
   <vehicle id="south_to_north_129" type="type1" depart="1851.1499999999999" color="1,0,0">
      <route edges="-590598876#1 -590598876#0 -130285156#3 -130285156#2 -130285156#1 -130285156#0 -1120094388"/>
   </vehicle>
   <vehicle id="south_to_north_130" type="type1" depart="1865.5" color="1,0,0">
      <route edges="-590598876#1 -590598876#0 -130285156#3 -130285156#2 -130285156#1 -130285156#0 -1120094388"/>
   </vehicle>
   <vehicle id="south_to_north_131" type="type1" depart="1879.85" color="1,0,0">
      <route edges="-590598876#1 -590598876#0 -130285156#3 -130285156#2 -130285156#1 -130285156#0 -1120094388"/>
   </vehicle>
   <vehicle id="south_to_north_132" type="type1" depart="1894.2" color="1,0,0">
      <route edges="-590598876#1 -590598876#0 -130285156#3 -130285156#2 -130285156#1 -130285156#0 -1120094388"/>
   </vehicle>
   <vehicle id="south_to_north_133" type="type1" depart="1908.55" color="1,0,0">
      <route edges="-590598876#1 -590598876#0 -130285156#3 -130285156#2 -130285156#1 -130285156#0 -1120094388"/>
   </vehicle>
   <vehicle id="south_to_north_134" type="type1" depart="1922.8999999999999" color="1,0,0">
      <route edges="-590598876#1 -590598876#0 -130285156#3 -130285156#2 -130285156#1 -130285156#0 -1120094388"/>
   </vehicle>
   <vehicle id="south_to_north_135" type="type1" depart="1937.25" color="1,0,0">
      <route edges="-590598876#1 -590598876#0 -130285156#3 -130285156#2 -130285156#1 -130285156#0 -1120094388"/>
   </vehicle>
   <vehicle id="south_to_north_136" type="type1" depart="1951.6" color="1,0,0">
      <route edges="-590598876#1 -590598876#0 -130285156#3 -130285156#2 -130285156#1 -130285156#0 -1120094388"/>
   </vehicle>
   <vehicle id="south_to_north_137" type="type1" depart="1965.95" color="1,0,0">
      <route edges="-590598876#1 -590598876#0 -130285156#3 -130285156#2 -130285156#1 -130285156#0 -1120094388"/>
   </vehicle>
   <vehicle id="south_to_north_138" type="type1" depart="1980.3" color="1,0,0">
      <route edges="-590598876#1 -590598876#0 -130285156#3 -130285156#2 -130285156#1 -130285156#0 -1120094388"/>
   </vehicle>
   <vehicle id="south_to_north_139" type="type1" depart="1994.6499999999999" color="1,0,0">
      <route edges="-590598876#1 -590598876#0 -130285156#3 -130285156#2 -130285156#1 -130285156#0 -1120094388"/>
   </vehicle>
   <vehicle id="south_to_north_140" type="type1" depart="2009.0" color="1,0,0">
      <route edges="-590598876#1 -590598876#0 -130285156#3 -130285156#2 -130285156#1 -130285156#0 -1120094388"/>
   </vehicle>
   <vehicle id="south_to_north_141" type="type1" depart="2023.35" color="1,0,0">
      <route edges="-590598876#1 -590598876#0 -130285156#3 -130285156#2 -130285156#1 -130285156#0 -1120094388"/>
   </vehicle>
   <vehicle id="south_to_north_142" type="type1" depart="2037.7" color="1,0,0">
      <route edges="-590598876#1 -590598876#0 -130285156#3 -130285156#2 -130285156#1 -130285156#0 -1120094388"/>
   </vehicle>
   <vehicle id="south_to_north_143" type="type1" depart="2052.0499999999997" color="1,0,0">