<routes>
    <vType id="type1" accel="0.8" decel="4.5" sigma="0.5" length="5" maxSpeed="70"/>

    <vehicle id="0" type="type1" depart="0" color="1,0,0">
      <route edges="-590598876#1 -590598876#0 -130285156#3 -130285156#2 -130285156#1 -130285156#0 -1120094388"/>
    </vehicle>

    <vehicle id="1" type="type1" depart="0" color="1,0,0">
      <route edges="-590598876#1 -590598876#0 -50799230#3 -50799230#2 -50799230#1 -50799230#0"/>
    </vehicle>

    <vehicle id="2" type="type1" depart="0" color="1,0,0">
      <route edges="50799230#0 50799230#1 50799230#2 50799230#3 -130285156#3 -130285156#2 -130285156#1 -130285156#0 -1120094388"/>
    </vehicle>
	
    <vehicle id="3" type="type1" depart="0" color="1,0,0">
      <route edges="1120094388 130285156#0 130285156#1 130285156#2 130285156#3 590598876#0 590598876#1"/>
    </vehicle>
	
    <vehicle id="5" type="type1" depart="0" color="1,0,0">
      <route edges="50799230#1  50799230#2 50799230#3 590598876#0 590598876#1 "/>
    </vehicle>
	
	<vehicle id="6" type="type1" depart="0" color="1,0,0">
      <route edges="1120094388  130285156#0 130285156#1 130285156#2 130285156#3  -50799230#3 -50799230#2 "/>
    </vehicle>
</routes>
