<?xml version="1.0" encoding="UTF-8"?>

<!-- generated on 06/13/24 14:43:41 by Eclipse SUMO netedit Version 1.2.0
<configuration xmlns:xsi="http://www.w3.org/2001/XMLSchema-instance" xsi:noNamespaceSchemaLocation="http://sumo.dlr.de/xsd/netconvertConfiguration.xsd">

    <input>
        <sumo-net-file value="foggymetro.net.xml"/>
    </input>

    <output>
        <output-file value="foggymetro.net.xml"/>
    </output>

    <processing>
        <geometry.max-grade.fix value="false"/>
        <offset.disable-normalization value="true"/>
        <lefthand value="false"/>
    </processing>

    <junctions>
        <no-turnarounds value="true"/>
        <junctions.corner-detail value="5"/>
        <junctions.limit-turn-speed value="5.5"/>
        <rectangular-lane-cut value="false"/>
    </junctions>

    <pedestrian>
        <walkingareas value="false"/>
    </pedestrian>

</configuration>
-->

<net version="1.1" junctionCornerDetail="5" limitTurnSpeed="5.50" xmlns:xsi="http://www.w3.org/2001/XMLSchema-instance" xsi:noNamespaceSchemaLocation="http://sumo.dlr.de/xsd/net_file.xsd">

    <location netOffset="-320402.22,-4307390.74" convBoundary="0.00,0.00,3700.33,505.73" origBoundary="-77.070987,38.897049,-77.028413,38.901968" projParameter="+proj=utm +zone=18 +ellps=WGS84 +datum=WGS84 +units=m +no_defs"/>

    <type id="highway.bridleway" priority="1" numLanes="1" speed="2.78" allow="pedestrian" oneway="1" width="2.00"/>
    <type id="highway.bus_guideway" priority="1" numLanes="1" speed="27.78" allow="bus" oneway="1"/>
    <type id="highway.cycleway" priority="1" numLanes="1" speed="8.33" allow="bicycle" oneway="0" width="1.00"/>
    <type id="highway.footway" priority="1" numLanes="1" speed="2.78" allow="pedestrian" oneway="1" width="2.00"/>
    <type id="highway.ford" priority="1" numLanes="1" speed="2.78" allow="army" oneway="0"/>
    <type id="highway.living_street" priority="2" numLanes="1" speed="2.78" disallow="tram rail_urban rail rail_electric ship" oneway="0"/>
    <type id="highway.motorway" priority="14" numLanes="2" speed="39.44" allow="private emergency authority army vip passenger hov taxi bus coach delivery truck trailer motorcycle evehicle custom1 custom2" oneway="1"/>
    <type id="highway.motorway_link" priority="9" numLanes="1" speed="22.22" allow="private emergency authority army vip passenger hov taxi bus coach delivery truck trailer motorcycle evehicle custom1 custom2" oneway="1"/>
    <type id="highway.path" priority="1" numLanes="1" speed="2.78" allow="bicycle pedestrian" oneway="1" width="2.00"/>
    <type id="highway.pedestrian" priority="1" numLanes="1" speed="2.78" allow="pedestrian" oneway="1" width="2.00"/>
    <type id="highway.primary" priority="12" numLanes="2" speed="27.78" disallow="tram rail_urban rail rail_electric ship" oneway="0"/>
    <type id="highway.primary_link" priority="7" numLanes="1" speed="22.22" disallow="tram rail_urban rail rail_electric ship" oneway="0"/>
    <type id="highway.raceway" priority="15" numLanes="2" speed="83.33" allow="vip" oneway="0"/>
    <type id="highway.residential" priority="3" numLanes="1" speed="13.89" disallow="tram rail_urban rail rail_electric ship" oneway="0"/>
    <type id="highway.secondary" priority="11" numLanes="2" speed="27.78" disallow="tram rail_urban rail rail_electric ship" oneway="0"/>
    <type id="highway.secondary_link" priority="6" numLanes="1" speed="22.22" disallow="tram rail_urban rail rail_electric ship" oneway="0"/>
    <type id="highway.service" priority="1" numLanes="1" speed="5.56" allow="delivery bicycle pedestrian" oneway="0"/>
    <type id="highway.stairs" priority="1" numLanes="1" speed="1.39" allow="pedestrian" oneway="1" width="2.00"/>
    <type id="highway.step" priority="1" numLanes="1" speed="1.39" allow="pedestrian" oneway="1" width="2.00"/>
    <type id="highway.steps" priority="1" numLanes="1" speed="1.39" allow="pedestrian" oneway="1" width="2.00"/>
    <type id="highway.tertiary" priority="10" numLanes="1" speed="22.22" disallow="tram rail_urban rail rail_electric ship" oneway="0"/>
    <type id="highway.tertiary_link" priority="5" numLanes="1" speed="22.22" disallow="tram rail_urban rail rail_electric ship" oneway="0"/>
    <type id="highway.track" priority="1" numLanes="1" speed="5.56" disallow="tram rail_urban rail rail_electric ship" oneway="0"/>
    <type id="highway.trunk" priority="13" numLanes="2" speed="27.78" disallow="tram rail_urban rail rail_electric bicycle pedestrian ship" oneway="0"/>
    <type id="highway.trunk_link" priority="8" numLanes="1" speed="22.22" disallow="tram rail_urban rail rail_electric bicycle pedestrian ship" oneway="0"/>
    <type id="highway.unclassified" priority="4" numLanes="1" speed="13.89" disallow="tram rail_urban rail rail_electric ship" oneway="0"/>
    <type id="highway.unsurfaced" priority="1" numLanes="1" speed="8.33" disallow="tram rail_urban rail rail_electric ship" oneway="0"/>
    <type id="railway.light_rail" priority="19" numLanes="1" speed="27.78" allow="rail_urban" oneway="1"/>
    <type id="railway.preserved" priority="16" numLanes="1" speed="27.78" allow="rail" oneway="1"/>
    <type id="railway.rail" priority="20" numLanes="1" speed="83.33" allow="rail rail_electric" oneway="1"/>
    <type id="railway.subway" priority="18" numLanes="1" speed="27.78" allow="rail_urban" oneway="1"/>
    <type id="railway.tram" priority="17" numLanes="1" speed="13.89" allow="tram" oneway="1"/>

    <edge id=":10244494308_0" function="internal">
        <lane id=":10244494308_0_0" index="0" disallow="tram rail_urban rail rail_electric ship" speed="27.78" length="0.30" shape="1816.24,459.84 1816.23,459.54"/>
        <lane id=":10244494308_0_1" index="1" disallow="tram rail_urban rail rail_electric ship" speed="27.78" length="0.30" shape="1819.44,459.74 1819.43,459.44"/>
    </edge>
    <edge id=":10244494308_2" function="internal">
        <lane id=":10244494308_2_0" index="0" disallow="tram rail_urban rail rail_electric ship" speed="27.78" length="0.30" shape="1825.82,459.24 1825.83,459.54"/>
        <lane id=":10244494308_2_1" index="1" disallow="tram rail_urban rail rail_electric ship" speed="27.78" length="0.30" shape="1822.62,459.34 1822.63,459.64"/>
    </edge>
    <edge id=":10259336199_0" function="internal">
        <lane id=":10259336199_0_0" index="0" disallow="tram rail_urban rail rail_electric ship" speed="27.78" length="6.20" shape="1815.12,419.07 1814.95,412.88"/>
        <lane id=":10259336199_0_1" index="1" disallow="tram rail_urban rail rail_electric ship" speed="27.78" length="6.20" shape="1818.32,418.99 1818.15,412.79"/>
    </edge>
    <edge id=":10259336199_2" function="internal">
        <lane id=":10259336199_2_0" index="0" disallow="tram rail_urban rail rail_electric ship" speed="3.65" length="2.34" shape="1818.32,418.99 1819.08,417.77 1819.87,417.35"/>
    </edge>
    <edge id=":10259336199_8" function="internal">
        <lane id=":10259336199_8_0" index="0" disallow="tram rail_urban rail rail_electric ship" speed="3.65" length="2.34" shape="1819.87,417.35 1820.68,417.72 1821.51,418.90"/>
    </edge>
    <edge id=":10259336199_3" function="internal">
        <lane id=":10259336199_3_0" index="0" disallow="tram rail_urban rail rail_electric ship" speed="27.78" length="6.20" shape="1824.55,412.62 1824.71,418.82"/>
        <lane id=":10259336199_3_1" index="1" disallow="tram rail_urban rail rail_electric ship" speed="27.78" length="6.20" shape="1821.35,412.71 1821.51,418.90"/>
    </edge>
    <edge id=":10259336199_5" function="internal">
        <lane id=":10259336199_5_0" index="0" disallow="tram rail_urban rail rail_electric ship" speed="3.65" length="2.34" shape="1821.35,412.71 1820.58,413.93 1819.79,414.35"/>
    </edge>
    <edge id=":10259336199_9" function="internal">
        <lane id=":10259336199_9_0" index="0" disallow="tram rail_urban rail rail_electric ship" speed="3.65" length="2.34" shape="1819.79,414.35 1818.98,413.97 1818.15,412.79"/>
    </edge>
    <edge id=":10259336199_6" function="internal">
        <lane id=":10259336199_6_0" index="0" disallow="tram rail_urban rail rail_electric ship" speed="5.05" length="5.01" shape="1811.93,416.07 1813.28,415.83 1814.24,415.22 1814.79,414.23 1814.95,412.88"/>
    </edge>
    <edge id=":10259336199_7" function="internal">
        <lane id=":10259336199_7_0" index="0" disallow="tram rail_urban rail rail_electric ship" speed="7.02" length="10.72" shape="1811.93,416.07 1816.09,416.13 1819.07,416.62 1820.88,417.55 1821.51,418.90"/>
    </edge>
    <edge id=":10259336200_0" function="internal">
        <lane id=":10259336200_0_0" index="0" allow="delivery bicycle pedestrian" speed="5.04" length="5.00" shape="1815.93,449.40 1815.70,448.05 1815.09,447.10 1814.11,446.54 1812.75,446.38"/>
    </edge>
    <edge id=":10259336200_1" function="internal">
        <lane id=":10259336200_1_0" index="0" disallow="tram rail_urban rail rail_electric ship" speed="27.78" length="6.21" shape="1815.93,449.40 1815.77,443.20"/>
        <lane id=":10259336200_1_1" index="1" disallow="tram rail_urban rail rail_electric ship" speed="27.78" length="6.21" shape="1819.13,449.32 1818.97,443.11"/>
    </edge>
    <edge id=":10259336200_3" function="internal">
        <lane id=":10259336200_3_0" index="0" disallow="tram rail_urban rail rail_electric ship" speed="3.65" length="2.34" shape="1819.13,449.32 1819.90,448.10 1820.69,447.68"/>
    </edge>
    <edge id=":10259336200_8" function="internal">
        <lane id=":10259336200_8_0" index="0" disallow="tram rail_urban rail rail_electric ship" speed="3.65" length="2.34" shape="1820.69,447.68 1821.50,448.06 1822.32,449.24"/>
    </edge>
    <edge id=":10259336200_4" function="internal">
        <lane id=":10259336200_4_0" index="0" disallow="tram rail_urban rail rail_electric ship" speed="27.78" length="6.23" shape="1825.36,442.94 1825.52,449.17"/>
        <lane id=":10259336200_4_1" index="1" disallow="tram rail_urban rail rail_electric ship" speed="27.78" length="6.23" shape="1822.17,443.03 1822.32,449.24"/>
    </edge>
    <edge id=":10259336200_6" function="internal">
        <lane id=":10259336200_6_0" index="0" allow="delivery bicycle pedestrian" speed="7.02" length="2.64" shape="1822.17,443.03 1821.61,444.41 1820.61,444.98"/>
    </edge>
    <edge id=":10259336200_7" function="internal">
        <lane id=":10259336200_7_0" index="0" disallow="tram rail_urban rail rail_electric ship" speed="3.65" length="2.34" shape="1822.17,443.03 1821.40,444.25 1820.61,444.67"/>
    </edge>
    <edge id=":10259336200_9" function="internal">
        <lane id=":10259336200_9_0" index="0" allow="delivery bicycle pedestrian" speed="7.02" length="8.07" shape="1820.61,444.98 1819.85,445.43 1816.90,446.08 1812.75,446.38"/>
    </edge>
    <edge id=":10259336200_10" function="internal">
        <lane id=":10259336200_10_0" index="0" disallow="tram rail_urban rail rail_electric ship" speed="3.65" length="2.34" shape="1820.61,444.67 1819.80,444.29 1818.97,443.11"/>
    </edge>
    <edge id=":11110834038_0" function="internal">
        <lane id=":11110834038_0_0" index="0" allow="delivery bicycle pedestrian" speed="5.56" length="5.01" shape="1805.34,416.28 1810.35,416.12"/>
    </edge>
    <edge id=":11110834039_0" function="internal">
        <lane id=":11110834039_0_0" index="0" allow="delivery bicycle pedestrian" speed="5.56" length="5.02" shape="1811.25,446.41 1806.23,446.53"/>
    </edge>
    <edge id=":1443727088_0" function="internal">
        <lane id=":1443727088_0_0" index="0" disallow="tram rail_urban rail rail_electric ship" speed="22.22" length="0.28" shape="1930.29,362.85 1930.01,362.85"/>
    </edge>
    <edge id=":1443727088_1" function="internal">
        <lane id=":1443727088_1_0" index="0" disallow="tram rail_urban rail rail_electric ship" speed="22.22" length="0.31" shape="1929.92,359.65 1930.23,359.65"/>
    </edge>
    <edge id=":49741703_0" function="internal">
        <lane id=":49741703_0_0" index="0" disallow="tram rail_urban rail rail_electric ship" speed="3.65" length="4.67" shape="2118.88,355.57 2120.10,356.34 2120.52,357.13 2120.14,357.94 2118.96,358.77"/>
    </edge>
    <edge id=":49777712_0" function="internal">
        <lane id=":49777712_0_0" index="0" disallow="tram rail_urban rail rail_electric ship" speed="3.65" length="4.67" shape="1813.22,240.54 1813.99,239.32 1814.78,238.90 1815.59,239.28 1816.42,240.46"/>
    </edge>
    <edge id=":49793670_0" function="internal">
        <lane id=":49793670_0_0" index="0" disallow="tram rail_urban rail rail_electric ship" speed="27.78" length="12.04" shape="1813.83,370.97 1813.24,367.55 1812.07,365.36 1810.84,363.16 1810.09,359.75"/>
        <lane id=":49793670_0_1" index="1" disallow="tram rail_urban rail rail_electric ship" speed="27.78" length="12.04" shape="1817.03,370.88 1816.44,367.42 1815.26,365.19 1814.03,362.97 1813.29,359.52"/>
    </edge>
    <edge id=":49793670_2" function="internal">
        <lane id=":49793670_2_0" index="0" disallow="tram rail_urban rail rail_electric ship" speed="9.05" length="6.21" shape="1817.03,370.88 1817.84,367.27 1819.61,365.50"/>
    </edge>
    <edge id=":49793670_3" function="internal">
        <lane id=":49793670_3_0" index="0" disallow="tram rail_urban rail rail_electric ship" speed="3.65" length="2.55" shape="1817.03,370.88 1817.80,369.66 1818.59,369.24 1818.79,369.33"/>
    </edge>
    <edge id=":49793670_12" function="internal">
        <lane id=":49793670_12_0" index="0" disallow="tram rail_urban rail rail_electric ship" speed="9.05" length="12.31" shape="1819.61,365.50 1820.47,364.65 1824.94,363.01 1831.24,362.35"/>
    </edge>
    <edge id=":49793670_13" function="internal">
        <lane id=":49793670_13_0" index="0" disallow="tram rail_urban rail rail_electric ship" speed="3.65" length="2.12" shape="1818.79,369.33 1819.40,369.62 1820.23,370.79"/>
    </edge>
    <edge id=":49793670_4" function="internal">
        <lane id=":49793670_4_0" index="0" disallow="tram rail_urban rail rail_electric ship" speed="6.98" length="10.58" shape="1831.31,365.55 1827.81,365.94 1825.33,366.93 1823.87,368.52 1823.43,370.71"/>
    </edge>
    <edge id=":49793670_5" function="internal">
        <lane id=":49793670_5_0" index="0" disallow="tram rail_urban rail rail_electric ship" speed="9.68" length="20.42" shape="1831.31,365.55 1823.61,365.32 1818.03,364.24 1814.59,362.30 1813.29,359.52"/>
    </edge>
    <edge id=":49793670_6" function="internal">
        <lane id=":49793670_6_0" index="0" disallow="tram rail_urban rail rail_electric ship" speed="9.02" length="17.58" shape="1831.31,365.55 1825.01,365.28 1820.43,364.14 1817.59,362.14 1816.48,359.28"/>
    </edge>
    <edge id=":49793670_7" function="internal">
        <lane id=":49793670_7_0" index="0" disallow="tram rail_urban rail rail_electric ship" speed="3.65" length="2.52" shape="1831.31,365.55 1830.10,364.78 1829.68,363.99 1829.76,363.82"/>
    </edge>
    <edge id=":49793670_14" function="internal">
        <lane id=":49793670_14_0" index="0" disallow="tram rail_urban rail rail_electric ship" speed="3.65" length="2.16" shape="1829.76,363.82 1830.06,363.18 1831.24,362.35"/>
    </edge>
    <edge id=":49793670_8" function="internal">
        <lane id=":49793670_8_0" index="0" disallow="tram rail_urban rail rail_electric ship" speed="6.00" length="7.22" shape="1826.05,358.57 1826.48,360.26 1827.49,361.46 1829.08,362.15 1831.24,362.35"/>
    </edge>
    <edge id=":49793670_9" function="internal">
        <lane id=":49793670_9_0" index="0" disallow="tram rail_urban rail rail_electric ship" speed="27.78" length="12.49" shape="1826.05,358.57 1825.81,362.20 1824.85,364.63 1823.83,367.06 1823.43,370.71"/>
        <lane id=":49793670_9_1" index="1" disallow="tram rail_urban rail rail_electric ship" speed="27.78" length="12.49" shape="1822.86,358.80 1822.62,362.40 1821.65,364.79 1820.63,367.19 1820.23,370.79"/>
    </edge>
    <edge id=":49793670_11" function="internal">
        <lane id=":49793670_11_0" index="0" disallow="tram rail_urban rail rail_electric ship" speed="3.65" length="2.34" shape="1819.67,359.04 1818.96,360.30 1818.19,360.75"/>
    </edge>
    <edge id=":49793670_15" function="internal">
        <lane id=":49793670_15_0" index="0" disallow="tram rail_urban rail rail_electric ship" speed="3.65" length="2.34" shape="1818.19,360.75 1817.36,360.42 1816.48,359.28"/>
    </edge>
    <edge id=":806521028_0" function="internal">
        <lane id=":806521028_0_0" index="0" disallow="tram rail_urban rail rail_electric ship" speed="3.65" length="4.67" shape="1823.57,495.44 1822.80,496.66 1822.01,497.08 1821.20,496.70 1820.37,495.52"/>
    </edge>
    <edge id=":9123357154_0" function="internal">
        <lane id=":9123357154_0_0" index="0" disallow="tram rail_urban rail rail_electric ship" speed="27.78" length="9.86" shape="1810.08,359.55 1809.69,349.55"/>
        <lane id=":9123357154_0_1" index="1" disallow="tram rail_urban rail rail_electric ship" speed="27.78" length="9.86" shape="1813.27,359.32 1812.89,349.47"/>
        <lane id=":9123357154_0_2" index="2" disallow="tram rail_urban rail rail_electric ship" speed="27.78" length="9.86" shape="1816.46,359.08 1816.09,349.38"/>
    </edge>
    <edge id=":9123357154_3" function="internal">
        <lane id=":9123357154_3_0" index="0" speed="7.29" length="3.07" shape="1816.46,359.08 1816.98,357.29 1817.96,356.58"/>
    </edge>
    <edge id=":9123357154_4" function="internal">
        <lane id=":9123357154_4_0" index="0" disallow="tram rail_urban rail rail_electric ship" speed="3.65" length="2.34" shape="1816.46,359.08 1817.17,357.82 1817.94,357.36"/>
    </edge>
    <edge id=":9123357154_10" function="internal">
        <lane id=":9123357154_10_0" index="0" speed="7.29" length="8.92" shape="1817.96,356.58 1818.84,355.96 1822.03,355.10 1826.56,354.71"/>
    </edge>
    <edge id=":9123357154_11" function="internal">
        <lane id=":9123357154_11_0" index="0" disallow="tram rail_urban rail rail_electric ship" speed="3.65" length="2.34" shape="1817.94,357.36 1818.77,357.70 1819.65,358.84"/>
    </edge>
    <edge id=":9123357154_5" function="internal">
        <lane id=":9123357154_5_0" index="0" speed="5.35" length="5.79" shape="1825.68,349.13 1825.69,350.42 1825.76,352.30 1826.00,353.99 1826.56,354.71"/>
    </edge>
    <edge id=":9123357154_6" function="internal">
        <lane id=":9123357154_6_0" index="0" disallow="tram rail_urban rail rail_electric ship" speed="27.78" length="9.40" shape="1825.68,349.13 1826.04,358.37"/>
        <lane id=":9123357154_6_1" index="1" disallow="tram rail_urban rail rail_electric ship" speed="27.78" length="9.40" shape="1822.49,349.21 1822.84,358.60"/>
        <lane id=":9123357154_6_2" index="2" disallow="tram rail_urban rail rail_electric ship" speed="27.78" length="9.40" shape="1819.29,349.30 1819.65,358.84"/>
    </edge>
    <edge id=":9123357154_9" function="internal">
        <lane id=":9123357154_9_0" index="0" disallow="tram rail_urban rail rail_electric ship" speed="3.65" length="2.34" shape="1819.29,349.30 1818.52,350.52 1817.73,350.94"/>
    </edge>
    <edge id=":9123357154_12" function="internal">
        <lane id=":9123357154_12_0" index="0" disallow="tram rail_urban rail rail_electric ship" speed="3.65" length="2.34" shape="1817.73,350.94 1816.92,350.56 1816.09,349.38"/>
    </edge>
    <edge id=":9123357155_0" function="internal">
        <lane id=":9123357155_0_0" index="0" disallow="tram rail_urban rail rail_electric ship" speed="27.78" length="4.39" shape="1813.96,375.56 1813.84,371.17"/>
        <lane id=":9123357155_0_1" index="1" disallow="tram rail_urban rail rail_electric ship" speed="27.78" length="4.39" shape="1817.16,375.48 1817.04,371.08"/>
    </edge>
    <edge id=":9123357155_2" function="internal">
        <lane id=":9123357155_2_0" index="0" disallow="tram rail_urban rail rail_electric ship" speed="3.65" length="2.34" shape="1817.16,375.48 1817.92,374.25 1818.71,373.83"/>
    </edge>
    <edge id=":9123357155_6" function="internal">
        <lane id=":9123357155_6_0" index="0" disallow="tram rail_urban rail rail_electric ship" speed="3.65" length="2.34" shape="1818.71,373.83 1819.52,374.21 1820.36,375.39"/>
    </edge>
    <edge id=":9123357155_3" function="internal">
        <lane id=":9123357155_3_0" index="0" disallow="tram rail_urban rail rail_electric ship" speed="27.78" length="4.40" shape="1823.44,370.91 1823.55,375.31"/>
        <lane id=":9123357155_3_1" index="1" disallow="tram rail_urban rail rail_electric ship" speed="27.78" length="4.40" shape="1820.24,370.99 1820.36,375.39"/>
    </edge>
    <edge id=":9123357155_5" function="internal">
        <lane id=":9123357155_5_0" index="0" disallow="tram rail_urban rail rail_electric ship" speed="3.65" length="2.34" shape="1820.24,370.99 1819.47,372.22 1818.68,372.64"/>
    </edge>
    <edge id=":9123357155_7" function="internal">
        <lane id=":9123357155_7_0" index="0" disallow="tram rail_urban rail rail_electric ship" speed="3.65" length="2.34" shape="1818.68,372.64 1817.87,372.26 1817.04,371.08"/>
    </edge>
    <edge id=":9428447085_0" function="internal">
        <lane id=":9428447085_0_0" index="0" disallow="tram rail_urban rail rail_electric ship" speed="22.22" length="4.51" shape="1836.02,365.43 1831.51,365.54"/>
    </edge>
    <edge id=":9428447085_1" function="internal">
        <lane id=":9428447085_1_0" index="0" disallow="tram rail_urban rail rail_electric ship" speed="3.65" length="2.34" shape="1836.02,365.43 1834.80,364.66 1834.38,363.87"/>
    </edge>
    <edge id=":9428447085_4" function="internal">
        <lane id=":9428447085_4_0" index="0" disallow="tram rail_urban rail rail_electric ship" speed="3.65" length="2.34" shape="1834.38,363.87 1834.76,363.06 1835.93,362.23"/>
    </edge>
    <edge id=":9428447085_2" function="internal">
        <lane id=":9428447085_2_0" index="0" disallow="tram rail_urban rail rail_electric ship" speed="22.22" length="4.49" shape="1831.44,362.34 1835.93,362.23"/>
    </edge>
    <edge id=":9428447085_3" function="internal">
        <lane id=":9428447085_3_0" index="0" disallow="tram rail_urban rail rail_electric ship" speed="3.65" length="2.34" shape="1831.44,362.34 1832.66,363.12 1833.08,363.91"/>
    </edge>
    <edge id=":9428447085_5" function="internal">
        <lane id=":9428447085_5_0" index="0" disallow="tram rail_urban rail rail_electric ship" speed="3.65" length="2.34" shape="1833.08,363.91 1832.70,364.72 1831.51,365.54"/>
    </edge>
    <edge id=":9768299499_0" function="internal">
        <lane id=":9768299499_0_0" index="0" disallow="tram rail_urban rail rail_electric ship" speed="22.22" length="0.10" shape="2107.78,359.02 2107.78,359.02"/>
    </edge>
    <edge id=":9768299499_1" function="internal">
        <lane id=":9768299499_1_0" index="0" disallow="tram rail_urban rail rail_electric ship" speed="22.22" length="0.10" shape="2107.70,355.82 2107.70,355.82"/>
    </edge>

    <edge id="-1120094388" from="10244494308" to="806521028" priority="12" type="highway.primary" shape="1821.03,459.54 1821.57,477.38 1821.97,495.48">
        <lane id="-1120094388_0" index="0" disallow="tram rail_urban rail rail_electric ship" speed="27.78" length="35.83" shape="1825.83,459.54 1826.37,477.25 1826.77,495.37"/>
        <lane id="-1120094388_1" index="1" disallow="tram rail_urban rail rail_electric ship" speed="27.78" length="35.83" shape="1822.63,459.64 1823.17,477.34 1823.57,495.44"/>
    </edge>
    <edge id="-130285156#0" from="10259336200" to="10244494308" priority="12" type="highway.primary" shape="1820.65,446.19 1820.77,451.12 1821.03,459.54">
        <lane id="-130285156#0_0" index="0" disallow="tram rail_urban rail rail_electric ship" speed="27.78" length="10.09" shape="1825.52,449.17 1825.57,450.98 1825.82,459.24"/>
        <lane id="-130285156#0_1" index="1" disallow="tram rail_urban rail rail_electric ship" speed="27.78" length="10.09" shape="1822.32,449.24 1822.37,451.07 1822.62,459.34"/>
    </edge>
    <edge id="-130285156#1" from="10259336199" to="10259336200" priority="12" type="highway.primary">
        <lane id="-130285156#1_0" index="0" disallow="tram rail_urban rail rail_electric ship" speed="27.78" length="24.13" shape="1824.71,418.82 1825.36,442.94"/>
        <lane id="-130285156#1_1" index="1" disallow="tram rail_urban rail rail_electric ship" speed="27.78" length="24.13" shape="1821.51,418.90 1822.17,443.03"/>
    </edge>
    <edge id="-130285156#2" from="9123357155" to="10259336199" priority="12" type="highway.primary">
        <lane id="-130285156#2_0" index="0" disallow="tram rail_urban rail rail_electric ship" speed="27.78" length="37.33" shape="1823.55,375.31 1824.55,412.62"/>
        <lane id="-130285156#2_1" index="1" disallow="tram rail_urban rail rail_electric ship" speed="27.78" length="37.33" shape="1820.36,375.39 1821.35,412.71"/>
    </edge>
    <edge id="-130285156#3" from="49793670" to="9123357155" priority="12" type="highway.primary">
        <lane id="-130285156#3_0" index="0" disallow="tram rail_urban rail rail_electric ship" speed="27.78" length="0.20" shape="1823.43,370.71 1823.44,370.91"/>
        <lane id="-130285156#3_1" index="1" disallow="tram rail_urban rail rail_electric ship" speed="27.78" length="0.20" shape="1820.23,370.79 1820.24,370.99"/>
    </edge>
    <edge id="-50799230#0" from="9768299499" to="49741703" priority="10" type="highway.tertiary">
        <lane id="-50799230#0_0" index="0" disallow="tram rail_urban rail rail_electric ship" speed="22.22" length="11.18" shape="2107.70,355.82 2118.88,355.57"/>
    </edge>
    <edge id="-50799230#1" from="1443727088" to="9768299499" priority="10" type="highway.tertiary" shape="1930.11,361.25 1938.55,361.08 1955.00,360.78 1965.85,360.58 1972.78,360.46 2001.16,359.92 2004.93,359.82 2042.97,358.85 2107.74,357.42">
        <lane id="-50799230#1_0" index="0" disallow="tram rail_urban rail rail_electric ship" speed="22.22" length="177.52" shape="1930.23,359.65 1938.52,359.48 1954.97,359.18 1965.82,358.98 1972.75,358.86 2001.13,358.32 2004.89,358.22 2042.93,357.25 2107.70,355.82"/>
    </edge>
    <edge id="-50799230#2" from="9428447085" to="1443727088" priority="10" type="highway.tertiary" shape="1833.43,363.90 1919.77,361.54 1930.11,361.25">
        <lane id="-50799230#2_0" index="0" disallow="tram rail_urban rail rail_electric ship" speed="22.22" length="94.02" shape="1835.93,362.23 1919.73,359.94 1929.92,359.65"/>
    </edge>
    <edge id="-50799230#3" from="49793670" to="9428447085" priority="10" type="highway.tertiary">
        <lane id="-50799230#3_0" index="0" disallow="tram rail_urban rail rail_electric ship" speed="22.22" length="0.20" shape="1831.24,362.35 1831.44,362.34"/>
    </edge>
    <edge id="-590598876#0" from="9123357154" to="49793670" priority="12" type="highway.primary">
        <lane id="-590598876#0_0" index="0" disallow="tram rail_urban rail rail_electric ship" speed="27.78" length="0.20" shape="1826.04,358.37 1826.05,358.57"/>
        <lane id="-590598876#0_1" index="1" disallow="tram rail_urban rail rail_electric ship" speed="27.78" length="0.20" shape="1822.84,358.60 1822.86,358.80"/>
        <lane id="-590598876#0_2" index="2" disallow="tram rail_urban rail rail_electric ship" speed="27.78" length="0.20" shape="1819.65,358.84 1819.67,359.04"/>
    </edge>
    <edge id="-590598876#1" from="49777712" to="9123357154" priority="12" type="highway.primary" shape="1814.82,240.50 1815.00,248.52 1817.88,356.58">
        <lane id="-590598876#1_0" index="0" disallow="tram rail_urban rail rail_electric ship" speed="27.78" length="108.86" shape="1822.82,240.32 1823.00,248.32 1825.68,349.13"/>
        <lane id="-590598876#1_1" index="1" disallow="tram rail_urban rail rail_electric ship" speed="27.78" length="108.86" shape="1819.62,240.39 1819.80,248.40 1822.49,349.21"/>
        <lane id="-590598876#1_2" index="2" disallow="tram rail_urban rail rail_electric ship" speed="27.78" length="108.86" shape="1816.42,240.46 1816.60,248.48 1819.29,349.30"/>
    </edge>
    <edge id="1034625746#0" from="8385417375" to="9762790799" priority="1" type="highway.footway" spreadType="center">
        <lane id="1034625746#0_0" index="0" allow="pedestrian" speed="2.78" length="37.50" width="2.00" shape="1712.46,373.75 1749.94,372.79"/>
    </edge>
    <edge id="1034625746#1" from="9762790799" to="9762790801" priority="1" type="highway.footway" spreadType="center">
        <lane id="1034625746#1_0" index="0" allow="pedestrian" speed="2.78" length="10.84" width="2.00" shape="1754.95,372.67 1765.79,372.43"/>
    </edge>
    <edge id="1034625746#2" from="9762790801" to="9530937566" priority="1" type="highway.footway" spreadType="center" shape="1768.31,372.37 1795.23,371.87 1804.19,373.33">
        <lane id="1034625746#2_0" index="0" allow="pedestrian" speed="2.78" length="30.94" width="2.00" shape="1770.79,372.32 1795.23,371.87 1801.64,372.91"/>
    </edge>
    <edge id="1034625746#3" from="9530937566" to="9530937568" priority="1" type="highway.footway" spreadType="center">
        <lane id="1034625746#3_0" index="0" allow="pedestrian" speed="2.78" length="2.20" width="2.00" shape="1806.81,373.24 1809.01,373.17"/>
    </edge>
    <edge id="1034625747#0" from="9530937571" to="10110405838" priority="1" type="highway.footway" spreadType="center">
        <lane id="1034625747#0_0" index="0" allow="pedestrian" speed="2.78" length="0.15" width="2.00" shape="1808.78,356.86 1808.63,356.86"/>
    </edge>
    <edge id="1034625747#1" from="10110405838" to="9530937570" priority="1" type="highway.footway" spreadType="center">
        <lane id="1034625747#1_0" index="0" allow="pedestrian" speed="2.78" length="92.57" width="2.00" shape="1804.29,357.00 1711.76,359.83"/>
    </edge>
    <edge id="1062723143#0" from="9762790799" to="9762790803" priority="1" type="highway.footway" spreadType="center">
        <lane id="1062723143#0_0" index="0" allow="pedestrian" speed="2.78" length="0.28" width="2.00" shape="1752.53,375.25 1752.54,375.53"/>