<?xml version="1.0" ?>
<routes>
   <vType id="veh_passenger" vClass="passenger"/>
   <vehicle depart="0.0" departLane="best" departSpeed="max" id="veh1_242" type="veh_passenger">
      <route edges="-590598876#1 -130285156#2 -130285156#1 -130285156#0 -1120094388#0"/>
   </vehicle>
   <vehicle depart="0.0" departLane="best" departSpeed="max" id="veh51_373" type="veh_passenger">
      <route edges="50799230#0 50799230#3 590598876#1"/>
   </vehicle>
   <vehicle depart="0.0" departLane="best" departSpeed="max" id="veh55_586" type="veh_passenger">
      <route edges="50799230#0 50799230#3 -130285156#2 -130285156#1 -130285156#0 -1120094388#0"/>
   </vehicle>
   <vehicle depart="0.0" departLane="best" departSpeed="max" id="veh98_694" type="veh_passenger">
      <route edges="-590598876#1 -50799230#3 -50799230#2"/>
   </vehicle>
   <vehicle depart="0.0" departLane="best" departSpeed="max" id="veh0_708" type="veh_passenger">
      <route edges="1120094388#0 1120094388#1 130285156#1 130285156#2 590598876#1"/>
   </vehicle>
   <vehicle depart="0.0" departLane="best" departSpeed="max" id="veh60_833" type="veh_passenger">
      <route edges="1120094388#0 1120094388#1 130285156#1 130285156#2 -50799230#3 -50799230#2"/>
   </vehicle>
   <vehicle depart="7.594936708860759" departLane="best" departSpeed="max" id="veh0_442" type="veh_passenger">
      <route edges="1120094388#0 1120094388#1 130285156#1 130285156#2 590598876#1"/>
   </vehicle>
   <vehicle depart="14.342629482071713" departLane="best" departSpeed="max" id="veh1_744" type="veh_passenger">
      <route edges="-590598876#1 -130285156#2 -130285156#1 -130285156#0 -1120094388#0"/>
   </vehicle>
   <vehicle depart="15.189873417721518" departLane="best" departSpeed="max" id="veh0_767" type="veh_passenger">
      <route edges="1120094388#0 1120094388#1 130285156#1 130285156#2 590598876#1"/>
   </vehicle>
   <vehicle depart="22.78481012658228" departLane="best" departSpeed="max" id="veh0_842" type="veh_passenger">
      <route edges="1120094388#0 1120094388#1 130285156#1 130285156#2 590598876#1"/>
   </vehicle>
   <vehicle depart="28.685258964143426" departLane="best" departSpeed="max" id="veh1_189" type="veh_passenger">
      <route edges="-590598876#1 -130285156#2 -130285156#1 -130285156#0 -1120094388#0"/>
   </vehicle>
   <vehicle depart="30.379746835443036" departLane="best" departSpeed="max" id="veh0_383" type="veh_passenger">
      <route edges="1120094388#0 1120094388#1 130285156#1 130285156#2 590598876#1"/>
   </vehicle>
   <vehicle depart="37.974683544303794" departLane="best" departSpeed="max" id="veh0_399" type="veh_passenger">
      <route edges="1120094388#0 1120094388#1 130285156#1 130285156#2 590598876#1"/>
   </vehicle>
   <vehicle depart="43.02788844621514" departLane="best" departSpeed="max" id="veh1_40" type="veh_passenger">
      <route edges="-590598876#1 -130285156#2 -130285156#1 -130285156#0 -1120094388#0"/>
   </vehicle>
   <vehicle depart="45.56962025316456" departLane="best" departSpeed="max" id="veh0_198" type="veh_passenger">
      <route edges="1120094388#0 1120094388#1 130285156#1 130285156#2 590598876#1"/>
   </vehicle>
   <vehicle depart="53.164556962025316" departLane="best" departSpeed="max" id="veh0_266" type="veh_passenger">
      <route edges="1120094388#0 1120094388#1 130285156#1 130285156#2 590598876#1"/>
   </vehicle>
   <vehicle depart="55.38461538461539" departLane="best" departSpeed="max" id="veh60_643" type="veh_passenger">
      <route edges="1120094388#0 1120094388#1 130285156#1 130285156#2 -50799230#3 -50799230#2"/>
   </vehicle>
   <vehicle depart="57.37051792828685" departLane="best" departSpeed="max" id="veh1_554" type="veh_passenger">
      <route edges="-590598876#1 -130285156#2 -130285156#1 -130285156#0 -1120094388#0"/>
   </vehicle>
   <vehicle depart="60.75949367088607" departLane="best" departSpeed="max" id="veh0_487" type="veh_passenger">
      <route edges="1120094388#0 1120094388#1 130285156#1 130285156#2 590598876#1"/>
   </vehicle>
   <vehicle depart="65.45454545454545" departLane="best" departSpeed="max" id="veh51_183" type="veh_passenger">
      <route edges="50799230#0 50799230#3 590598876#1"/>
   </vehicle>
   <vehicle depart="68.35443037974683" departLane="best" departSpeed="max" id="veh0_637" type="veh_passenger">
      <route edges="1120094388#0 1120094388#1 130285156#1 130285156#2 590598876#1"/>
   </vehicle>
   <vehicle depart="71.71314741035856" departLane="best" departSpeed="max" id="veh1_36" type="veh_passenger">
      <route edges="-590598876#1 -130285156#2 -130285156#1 -130285156#0 -1120094388#0"/>
   </vehicle>
   <vehicle depart="75.94936708860759" departLane="best" departSpeed="max" id="veh0_441" type="veh_passenger">
      <route edges="1120094388#0 1120094388#1 130285156#1 130285156#2 590598876#1"/>
   </vehicle>
   <vehicle depart="83.54430379746834" departLane="best" departSpeed="max" id="veh0_831" type="veh_passenger">
      <route edges="1120094388#0 1120094388#1 130285156#1 130285156#2 590598876#1"/>
   </vehicle>
   <vehicle depart="86.05577689243027" departLane="best" departSpeed="max" id="veh1_192" type="veh_passenger">
      <route edges="-590598876#1 -130285156#2 -130285156#1 -130285156#0 -1120094388#0"/>
   </vehicle>
   <vehicle depart="91.13924050632912" departLane="best" departSpeed="max" id="veh0_644" type="veh_passenger">
      <route edges="1120094388#0 1120094388#1 130285156#1 130285156#2 590598876#1"/>
   </vehicle>
   <vehicle depart="98.73417721518987" departLane="best" departSpeed="max" id="veh0_26" type="veh_passenger">
      <route edges="1120094388#0 1120094388#1 130285156#1 130285156#2 590598876#1"/>
   </vehicle>
   <vehicle depart="100.39840637450199" departLane="best" departSpeed="max" id="veh1_329" type="veh_passenger">
      <route edges="-590598876#1 -130285156#2 -130285156#1 -130285156#0 -1120094388#0"/>
   </vehicle>
   <vehicle depart="106.32911392405063" departLane="best" departSpeed="max" id="veh0_608" type="veh_passenger">
      <route edges="1120094388#0 1120094388#1 130285156#1 130285156#2 590598876#1"/>
   </vehicle>
   <vehicle depart="110.76923076923077" departLane="best" departSpeed="max" id="veh60_246" type="veh_passenger">
      <route edges="1120094388#0 1120094388#1 130285156#1 130285156#2 -50799230#3 -50799230#2"/>
   </vehicle>
   <vehicle depart="113.92405063291139" departLane="best" departSpeed="max" id="veh0_836" type="veh_passenger">
      <route edges="1120094388#0 1120094388#1 130285156#1 130285156#2 590598876#1"/>
   </vehicle>
   <vehicle depart="114.7410358565737" departLane="best" departSpeed="max" id="veh1_870" type="veh_passenger">
      <route edges="-590598876#1 -130285156#2 -130285156#1 -130285156#0 -1120094388#0"/>
   </vehicle>
   <vehicle depart="121.51898734177215" departLane="best" departSpeed="max" id="veh0_359" type="veh_passenger">
      <route edges="1120094388#0 1120094388#1 130285156#1 130285156#2 590598876#1"/>
   </vehicle>
   <vehicle depart="129.0836653386454" departLane="best" departSpeed="max" id="veh1_6" type="veh_passenger">
      <route edges="-590598876#1 -130285156#2 -130285156#1 -130285156#0 -1120094388#0"/>
   </vehicle>
   <vehicle depart="129.1139240506329" departLane="best" departSpeed="max" id="veh0_91" type="veh_passenger">
      <route edges="1120094388#0 1120094388#1 130285156#1 130285156#2 590598876#1"/>
   </vehicle>
   <vehicle depart="130.9090909090909" departLane="best" departSpeed="max" id="veh51_828" type="veh_passenger">
      <route edges="50799230#0 50799230#3 590598876#1"/>
   </vehicle>
   <vehicle depart="136.70886075949366" departLane="best" departSpeed="max" id="veh0_757" type="veh_passenger">
      <route edges="1120094388#0 1120094388#1 130285156#1 130285156#2 590598876#1"/>
   </vehicle>
   <vehicle depart="143.42629482071712" departLane="best" departSpeed="max" id="veh1_31" type="veh_passenger">
      <route edges="-590598876#1 -130285156#2 -130285156#1 -130285156#0 -1120094388#0"/>
   </vehicle>
   <vehicle depart="144.30379746835442" departLane="best" departSpeed="max" id="veh0_318" type="veh_passenger">
      <route edges="1120094388#0 1120094388#1 130285156#1 130285156#2 590598876#1"/>
   </vehicle>
   <vehicle depart="150.0" departLane="best" departSpeed="max" id="veh55_578" type="veh_passenger">
      <route edges="50799230#0 50799230#3 -130285156#2 -130285156#1 -130285156#0 -1120094388#0"/>
   </vehicle>
   <vehicle depart="151.89873417721518" departLane="best" departSpeed="max" id="veh0_547" type="veh_passenger">
      <route edges="1120094388#0 1120094388#1 130285156#1 130285156#2 590598876#1"/>
   </vehicle>
   <vehicle depart="157.76892430278883" departLane="best" departSpeed="max" id="veh1_45" type="veh_passenger">
      <route edges="-590598876#1 -130285156#2 -130285156#1 -130285156#0 -1120094388#0"/>
   </vehicle>
   <vehicle depart="159.49367088607593" departLane="best" departSpeed="max" id="veh0_697" type="veh_passenger">
      <route edges="1120094388#0 1120094388#1 130285156#1 130285156#2 590598876#1"/>
   </vehicle>
   <vehicle depart="166.15384615384616" departLane="best" departSpeed="max" id="veh60_263" type="veh_passenger">
      <route edges="1120094388#0 1120094388#1 130285156#1 130285156#2 -50799230#3 -50799230#2"/>
   </vehicle>
   <vehicle depart="167.0886075949367" departLane="best" departSpeed="max" id="veh0_232" type="veh_passenger">
      <route edges="1120094388#0 1120094388#1 130285156#1 130285156#2 590598876#1"/>
   </vehicle>
   <vehicle depart="172.11155378486055" departLane="best" departSpeed="max" id="veh1_252" type="veh_passenger">
      <route edges="-590598876#1 -130285156#2 -130285156#1 -130285156#0 -1120094388#0"/>
   </vehicle>
   <vehicle depart="174.68354430379745" departLane="best" departSpeed="max" id="veh0_42" type="veh_passenger">
      <route edges="1120094388#0 1120094388#1 130285156#1 130285156#2 590598876#1"/>
   </vehicle>
   <vehicle depart="182.27848101265823" departLane="best" departSpeed="max" id="veh0_755" type="veh_passenger">
      <route edges="1120094388#0 1120094388#1 130285156#1 130285156#2 590598876#1"/>
   </vehicle>
   <vehicle depart="186.45418326693226" departLane="best" departSpeed="max" id="veh1_854" type="veh_passenger">
      <route edges="-590598876#1 -130285156#2 -130285156#1 -130285156#0 -1120094388#0"/>
   </vehicle>
   <vehicle depart="189.873417721519" departLane="best" departSpeed="max" id="veh0_398" type="veh_passenger">
      <route edges="1120094388#0 1120094388#1 130285156#1 130285156#2 590598876#1"/>
   </vehicle>
   <vehicle depart="196.36363636363637" departLane="best" departSpeed="max" id="veh51_49" type="veh_passenger">
      <route edges="50799230#0 50799230#3 590598876#1"/>
   </vehicle>
   <vehicle depart="197.46835443037975" departLane="best" departSpeed="max" id="veh0_592" type="veh_passenger">
      <route edges="1120094388#0 1120094388#1 130285156#1 130285156#2 590598876#1"/>
   </vehicle>
   <vehicle depart="200.79681274900398" departLane="best" departSpeed="max" id="veh1_734" type="veh_passenger">
      <route edges="-590598876#1 -130285156#2 -130285156#1 -130285156#0 -1120094388#0"/>
   </vehicle>
   <vehicle depart="205.0632911392405" departLane="best" departSpeed="max" id="veh0_23" type="veh_passenger">
      <route edges="1120094388#0 1120094388#1 130285156#1 130285156#2 590598876#1"/>
   </vehicle>
   <vehicle depart="212.65822784810126" departLane="best" departSpeed="max" id="veh0_422" type="veh_passenger">
      <route edges="1120094388#0 1120094388#1 130285156#1 130285156#2 590598876#1"/>
   </vehicle>
   <vehicle depart="215.1394422310757" departLane="best" departSpeed="max" id="veh1_677" type="veh_passenger">
      <route edges="-590598876#1 -130285156#2 -130285156#1 -130285156#0 -1120094388#0"/>
   </vehicle>
   <vehicle depart="220.25316455696202" departLane="best" departSpeed="max" id="veh0_301" type="veh_passenger">
      <route edges="1120094388#0 1120094388#1 130285156#1 130285156#2 590598876#1"/>
   </vehicle>
   <vehicle depart="221.53846153846155" departLane="best" departSpeed="max" id="veh60_247" type="veh_passenger">
      <route edges="1120094388#0 1120094388#1 130285156#1 130285156#2 -50799230#3 -50799230#2"/>
   </vehicle>
   <vehicle depart="227.84810126582278" departLane="best" departSpeed="max" id="veh0_372" type="veh_passenger">
      <route edges="1120094388#0 1120094388#1 130285156#1 130285156#2 590598876#1"/>
   </vehicle>
   <vehicle depart="229.4820717131474" departLane="best" departSpeed="max" id="veh1_179" type="veh_passenger">
      <route edges="-590598876#1 -130285156#2 -130285156#1 -130285156#0 -1120094388#0"/>
   </vehicle>
   <vehicle depart="235.44303797468353" departLane="best" departSpeed="max" id="veh0_132" type="veh_passenger">
      <route edges="1120094388#0 1120094388#1 130285156#1 130285156#2 590598876#1"/>
   </vehicle>
   <vehicle depart="240.0" departLane="best" departSpeed="max" id="veh98_261" type="veh_passenger">
      <route edges="-590598876#1 -50799230#3 -50799230#2"/>
   </vehicle>
   <vehicle depart="243.0379746835443" departLane="best" departSpeed="max" id="veh0_476" type="veh_passenger">
      <route edges="1120094388#0 1120094388#1 130285156#1 130285156#2 590598876#1"/>
   </vehicle>
   <vehicle depart="243.82470119521912" departLane="best" departSpeed="max" id="veh1_474" type="veh_passenger">
      <route edges="-590598876#1 -130285156#2 -130285156#1 -130285156#0 -1120094388#0"/>
   </vehicle>
   <vehicle depart="250.63291139240505" departLane="best" departSpeed="max" id="veh0_813" type="veh_passenger">
      <route edges="1120094388#0 1120094388#1 130285156#1 130285156#2 590598876#1"/>
   </vehicle>
   <vehicle depart="258.1673306772908" departLane="best" departSpeed="max" id="veh1_863" type="veh_passenger">
      <route edges="-590598876#1 -130285156#2 -130285156#1 -130285156#0 -1120094388#0"/>
   </vehicle>
   <vehicle depart="258.2278481012658" departLane="best" departSpeed="max" id="veh0_511" type="veh_passenger">
      <route edges="1120094388#0 1120094388#1 130285156#1 130285156#2 590598876#1"/>
   </vehicle>
   <vehicle depart="261.8181818181818" departLane="best" departSpeed="max" id="veh51_748" type="veh_passenger">
      <route edges="50799230#0 50799230#3 590598876#1"/>
   </vehicle>
   <vehicle depart="265.82278481012656" departLane="best" departSpeed="max" id="veh0_628" type="veh_passenger">
      <route edges="1120094388#0 1120094388#1 130285156#1 130285156#2 590598876#1"/>
   </vehicle>
   <vehicle depart="272.50996015936255" departLane="best" departSpeed="max" id="veh1_38" type="veh_passenger">
      <route edges="-590598876#1 -130285156#2 -130285156#1 -130285156#0 -1120094388#0"/>
   </vehicle>
   <vehicle depart="273.4177215189873" departLane="best" departSpeed="max" id="veh0_95" type="veh_passenger">
      <route edges="1120094388#0 1120094388#1 130285156#1 130285156#2 590598876#1"/>
   </vehicle>
   <vehicle depart="276.9230769230769" departLane="best" departSpeed="max" id="veh60_202" type="veh_passenger">
      <route edges="1120094388#0 1120094388#1 130285156#1 130285156#2 -50799230#3 -50799230#2"/>
   </vehicle>
   <vehicle depart="281.0126582278481" departLane="best" departSpeed="max" id="veh0_460" type="veh_passenger">
      <route edges="1120094388#0 1120094388#1 130285156#1 130285156#2 590598876#1"/>
   </vehicle>
   <vehicle depart="286.85258964143424" departLane="best" departSpeed="max" id="veh1_243" type="veh_passenger">
      <route edges="-590598876#1 -130285156#2 -130285156#1 -130285156#0 -1120094388#0"/>
   </vehicle>
   <vehicle depart="288.60759493670884" departLane="best" departSpeed="max" id="veh0_786" type="veh_passenger">
      <route edges="1120094388#0 1120094388#1 130285156#1 130285156#2 590598876#1"/>
   </vehicle>
   <vehicle depart="296.2025316455696" departLane="best" departSpeed="max" id="veh0_22" type="veh_passenger">
      <route edges="1120094388#0 1120094388#1 130285156#1 130285156#2 590598876#1"/>
   </vehicle>
   <vehicle depart="300.0" departLane="best" departSpeed="max" id="veh55_419" type="veh_passenger">
      <route edges="50799230#0 50799230#3 -130285156#2 -130285156#1 -130285156#0 -1120094388#0"/>
   </vehicle>
   <vehicle depart="301.195219123506" departLane="best" departSpeed="max" id="veh1_322" type="veh_passenger">
      <route edges="-590598876#1 -130285156#2 -130285156#1 -130285156#0 -1120094388#0"/>
   </vehicle>
   <vehicle depart="303.79746835443035" departLane="best" departSpeed="max" id="veh0_565" type="veh_passenger">
      <route edges="1120094388#0 1120094388#1 130285156#1 130285156#2 590598876#1"/>
   </vehicle>
   <vehicle depart="311.3924050632911" departLane="best" departSpeed="max" id="veh0_646" type="veh_passenger">
      <route edges="1120094388#0 1120094388#1 130285156#1 130285156#2 590598876#1"/>
   </vehicle>
   <vehicle depart="315.53784860557766" departLane="best" departSpeed="max" id="veh1_627" type="veh_passenger">
      <route edges="-590598876#1 -130285156#2 -130285156#1 -130285156#0 -1120094388#0"/>
   </vehicle>
   <vehicle depart="318.98734177215186" departLane="best" departSpeed="max" id="veh0_784" type="veh_passenger">
      <route edges="1120094388#0 1120094388#1 130285156#1 130285156#2 590598876#1"/>
   </vehicle>
   <vehicle depart="326.5822784810126" departLane="best" departSpeed="max" id="veh0_92" type="veh_passenger">
      <route edges="1120094388#0 1120094388#1 130285156#1 130285156#2 590598876#1"/>
   </vehicle>
   <vehicle depart="327.27272727272725" departLane="best" departSpeed="max" id="veh51_455" type="veh_passenger">
      <route edges="50799230#0 50799230#3 590598876#1"/>
   </vehicle>
   <vehicle depart="329.8804780876494" departLane="best" departSpeed="max" id="veh1_50" type="veh_passenger">
      <route edges="-590598876#1 -130285156#2 -130285156#1 -130285156#0 -1120094388#0"/>
   </vehicle>
   <vehicle depart="332.3076923076923" departLane="best" departSpeed="max" id="veh60_876" type="veh_passenger">
      <route edges="1120094388#0 1120094388#1 130285156#1 130285156#2 -50799230#3 -50799230#2"/>
   </vehicle>
   <vehicle depart="334.1772151898734" departLane="best" departSpeed="max" id="veh0_821" type="veh_passenger">
      <route edges="1120094388#0 1120094388#1 130285156#1 130285156#2 590598876#1"/>
   </vehicle>
   <vehicle depart="341.77215189873414" departLane="best" departSpeed="max" id="veh0_219" type="veh_passenger">
      <route edges="1120094388#0 1120094388#1 130285156#1 130285156#2 590598876#1"/>
   </vehicle>
   <vehicle depart="344.2231075697211" departLane="best" departSpeed="max" id="veh1_128" type="veh_passenger">
      <route edges="-590598876#1 -130285156#2 -130285156#1 -130285156#0 -1120094388#0"/>
   </vehicle>
   <vehicle depart="349.3670886075949" departLane="best" departSpeed="max" id="veh0_129" type="veh_passenger">
      <route edges="1120094388#0 1120094388#1 130285156#1 130285156#2 590598876#1"/>
   </vehicle>
   <vehicle depart="356.96202531645565" departLane="best" departSpeed="max" id="veh0_763" type="veh_passenger">
      <route edges="1120094388#0 1120094388#1 130285156#1 130285156#2 590598876#1"/>
   </vehicle>
   <vehicle depart="358.56573705179284" departLane="best" departSpeed="max" id="veh1_251" type="veh_passenger">
      <route edges="-590598876#1 -130285156#2 -130285156#1 -130285156#0 -1120094388#0"/>
   </vehicle>
   <vehicle depart="364.55696202531647" departLane="best" departSpeed="max" id="veh0_297" type="veh_passenger">
      <route edges="1120094388#0 1120094388#1 130285156#1 130285156#2 590598876#1"/>
   </vehicle>
   <vehicle depart="372.1518987341772" departLane="best" departSpeed="max" id="veh0_798" type="veh_passenger">
      <route edges="1120094388#0 1120094388#1 130285156#1 130285156#2 590598876#1"/>
   </vehicle>
   <vehicle depart="372.9083665338645" departLane="best" departSpeed="max" id="veh1_447" type="veh_passenger">
      <route edges="-590598876#1 -130285156#2 -130285156#1 -130285156#0 -1120094388#0"/>
   </vehicle>
   <vehicle depart="379.746835443038" departLane="best" departSpeed="max" id="veh0_214" type="veh_passenger">
      <route edges="1120094388#0 1120094388#1 130285156#1 130285156#2 590598876#1"/>
   </vehicle>
   <vehicle depart="387.25099601593627" departLane="best" departSpeed="max" id="veh1_848" type="veh_passenger">
      <route edges="-590598876#1 -130285156#2 -130285156#1 -130285156#0 -1120094388#0"/>
   </vehicle>
   <vehicle depart="387.34177215189874" departLane="best" departSpeed="max" id="veh0_531" type="veh_passenger">
      <route edges="1120094388#0 1120094388#1 130285156#1 130285156#2 590598876#1"/>
   </vehicle>
   <vehicle depart="387.69230769230774" departLane="best" departSpeed="max" id="veh60_273" type="veh_passenger">
      <route edges="1120094388#0 1120094388#1 130285156#1 130285156#2 -50799230#3 -50799230#2"/>
   </vehicle>
   <vehicle depart="392.72727272727275" departLane="best" departSpeed="max" id="veh51_747" type="veh_passenger">
      <route edges="50799230#0 50799230#3 590598876#1"/>
   </vehicle>
   <vehicle depart="394.9367088607595" departLane="best" departSpeed="max" id="veh0_806" type="veh_passenger">
      <route edges="1120094388#0 1120094388#1 130285156#1 130285156#2 590598876#1"/>
   </vehicle>
   <vehicle depart="401.59362549800795" departLane="best" departSpeed="max" id="veh1_525" type="veh_passenger">
      <route edges="-590598876#1 -130285156#2 -130285156#1 -130285156#0 -1120094388#0"/>
   </vehicle>
   <vehicle depart="402.53164556962025" departLane="best" departSpeed="max" id="veh0_760" type="veh_passenger">
      <route edges="1120094388#0 1120094388#1 130285156#1 130285156#2 590598876#1"/>
   </vehicle>
   <vehicle depart="410.126582278481" departLane="best" departSpeed="max" id="veh0_726" type="veh_passenger">
      <route edges="1120094388#0 1120094388#1 130285156#1 130285156#2 590598876#1"/>
   </vehicle>
   <vehicle depart="415.9362549800797" departLane="best" departSpeed="max" id="veh1_141" type="veh_passenger">
      <route edges="-590598876#1 -130285156#2 -130285156#1 -130285156#0 -1120094388#0"/>
   </vehicle>
   <vehicle depart="417.72151898734177" departLane="best" departSpeed="max" id="veh0_602" type="veh_passenger">
      <route edges="1120094388#0 1120094388#1 130285156#1 130285156#2 590598876#1"/>
   </vehicle>
   <vehicle depart="425.3164556962025" departLane="best" departSpeed="max" id="veh0_815" type="veh_passenger">
      <route edges="1120094388#0 1120094388#1 130285156#1 130285156#2 590598876#1"/>
   </vehicle>
   <vehicle depart="430.2788844621514" departLane="best" departSpeed="max" id="veh1_120" type="veh_passenger">
      <route edges="-590598876#1 -130285156#2 -130285156#1 -130285156#0 -1120094388#0"/>
   </vehicle>
   <vehicle depart="432.9113924050633" departLane="best" departSpeed="max" id="veh0_466" type="veh_passenger">
      <route edges="1120094388#0 1120094388#1 130285156#1 130285156#2 590598876#1"/>
   </vehicle>
   <vehicle depart="440.50632911392404" departLane="best" departSpeed="max" id="veh0_283" type="veh_passenger">
      <route edges="1120094388#0 1120094388#1 130285156#1 130285156#2 590598876#1"/>
   </vehicle>
   <vehicle depart="443.0769230769231" departLane="best" departSpeed="max" id="veh60_569" type="veh_passenger">
      <route edges="1120094388#0 1120094388#1 130285156#1 130285156#2 -50799230#3 -50799230#2"/>
   </vehicle>
   <vehicle depart="444.6215139442231" departLane="best" departSpeed="max" id="veh1_396" type="veh_passenger">
      <route edges="-590598876#1 -130285156#2 -130285156#1 -130285156#0 -1120094388#0"/>
   </vehicle>
   <vehicle depart="448.1012658227848" departLane="best" departSpeed="max" id="veh0_480" type="veh_passenger">
      <route edges="1120094388#0 1120094388#1 130285156#1 130285156#2 590598876#1"/>
   </vehicle>
   <vehicle depart="450.0" departLane="best" departSpeed="max" id="veh55_306" type="veh_passenger">
      <route edges="50799230#0 50799230#3 -130285156#2 -130285156#1 -130285156#0 -1120094388#0"/>
   </vehicle>
   <vehicle depart="455.69620253164555" departLane="best" departSpeed="max" id="veh0_356" type="veh_passenger">
      <route edges="1120094388#0 1120094388#1 130285156#1 130285156#2 590598876#1"/>
   </vehicle>
   <vehicle depart="458.1818181818182" departLane="best" departSpeed="max" id="veh51_796" type="veh_passenger">
      <route edges="50799230#0 50799230#3 590598876#1"/>
   </vehicle>
   <vehicle depart="458.9641434262948" departLane="best" departSpeed="max" id="veh1_864" type="veh_passenger">
      <route edges="-590598876#1 -130285156#2 -130285156#1 -130285156#0 -1120094388#0"/>
   </vehicle>
   <vehicle depart="463.2911392405063" departLane="best" departSpeed="max" id="veh0_837" type="veh_passenger">
      <route edges="1120094388#0 1120094388#1 130285156#1 130285156#2 590598876#1"/>
   </vehicle>
   <vehicle depart="470.88607594936707" departLane="best" departSpeed="max" id="veh0_57" type="veh_passenger">
      <route edges="1120094388#0 1120094388#1 130285156#1 130285156#2 590598876#1"/>
   </vehicle>
   <vehicle depart="473.3067729083665" departLane="best" departSpeed="max" id="veh1_626" type="veh_passenger">
      <route edges="-590598876#1 -130285156#2 -130285156#1 -130285156#0 -1120094388#0"/>
   </vehicle>
   <vehicle depart="478.4810126582278" departLane="best" departSpeed="max" id="veh0_310" type="veh_passenger">
      <route edges="1120094388#0 1120094388#1 130285156#1 130285156#2 590598876#1"/>
   </vehicle>
   <vehicle depart="480.0" departLane="best" departSpeed="max" id="veh98_155" type="veh_passenger">
      <route edges="-590598876#1 -50799230#3 -50799230#2"/>
   </vehicle>
   <vehicle depart="486.0759493670886" departLane="best" departSpeed="max" id="veh0_20" type="veh_passenger">
      <route edges="1120094388#0 1120094388#1 130285156#1 130285156#2 590598876#1"/>
   </vehicle>
   <vehicle depart="487.64940239043824" departLane="best" departSpeed="max" id="veh1_545" type="veh_passenger">
      <route edges="-590598876#1 -130285156#2 -130285156#1 -130285156#0 -1120094388#0"/>
   </vehicle>
   <vehicle depart="493.67088607594934" departLane="best" departSpeed="max" id="veh0_387" type="veh_passenger">
      <route edges="1120094388#0 1120094388#1 130285156#1 130285156#2 590598876#1"/>
   </vehicle>
   <vehicle depart="498.46153846153845" departLane="best" departSpeed="max" id="veh60_406" type="veh_passenger">
      <route edges="1120094388#0 1120094388#1 130285156#1 130285156#2 -50799230#3 -50799230#2"/>
   </vehicle>
   <vehicle depart="501.2658227848101" departLane="best" departSpeed="max" id="veh0_236" type="veh_passenger">
      <route edges="1120094388#0 1120094388#1 130285156#1 130285156#2 590598876#1"/>
   </vehicle>
   <vehicle depart="501.9920318725099" departLane="best" departSpeed="max" id="veh1_811" type="veh_passenger">
      <route edges="-590598876#1 -130285156#2 -130285156#1 -130285156#0 -1120094388#0"/>
   </vehicle>
   <vehicle depart="508.86075949367086" departLane="best" departSpeed="max" id="veh0_69" type="veh_passenger">
      <route edges="1120094388#0 1120094388#1 130285156#1 130285156#2 590598876#1"/>
   </vehicle>
   <vehicle depart="516.3346613545816" departLane="best" departSpeed="max" id="veh1_218" type="veh_passenger">
      <route edges="-590598876#1 -130285156#2 -130285156#1 -130285156#0 -1120094388#0"/>
   </vehicle>
   <vehicle depart="516.4556962025316" departLane="best" departSpeed="max" id="veh0_537" type="veh_passenger">
      <route edges="1120094388#0 1120094388#1 130285156#1 130285156#2 590598876#1"/>
   </vehicle>
   <vehicle depart="523.6363636363636" departLane="best" departSpeed="max" id="veh51_340" type="veh_passenger">
      <route edges="50799230#0 50799230#3 590598876#1"/>
   </vehicle>
   <vehicle depart="524.0506329113924" departLane="best" departSpeed="max" id="veh0_19" type="veh_passenger">
      <route edges="1120094388#0 1120094388#1 130285156#1 130285156#2 590598876#1"/>
   </vehicle>
   <vehicle depart="530.6772908366534" departLane="best" departSpeed="max" id="veh1_390" type="veh_passenger">
      <route edges="-590598876#1 -130285156#2 -130285156#1 -130285156#0 -1120094388#0"/>
   </vehicle>
   <vehicle depart="531.6455696202531" departLane="best" departSpeed="max" id="veh0_698" type="veh_passenger">
      <route edges="1120094388#0 1120094388#1 130285156#1 130285156#2 590598876#1"/>
   </vehicle>
   <vehicle depart="539.2405063291139" departLane="best" departSpeed="max" id="veh0_674" type="veh_passenger">
      <route edges="1120094388#0 1120094388#1 130285156#1 130285156#2 590598876#1"/>
   </vehicle>
   <vehicle depart="545.0199203187251" departLane="best" departSpeed="max" id="veh1_479" type="veh_passenger">
      <route edges="-590598876#1 -130285156#2 -130285156#1 -130285156#0 -1120094388#0"/>
   </vehicle>
   <vehicle depart="546.8354430379746" departLane="best" departSpeed="max" id="veh0_633" type="veh_passenger">
      <route edges="1120094388#0 1120094388#1 130285156#1 130285156#2 590598876#1"/>
   </vehicle>
   <vehicle depart="553.8461538461538" departLane="best" departSpeed="max" id="veh60_631" type="veh_passenger">
      <route edges="1120094388#0 1120094388#1 130285156#1 130285156#2 -50799230#3 -50799230#2"/>
   </vehicle>
   <vehicle depart="554.4303797468355" departLane="best" departSpeed="max" id="veh0_324" type="veh_passenger">
      <route edges="1120094388#0 1120094388#1 130285156#1 130285156#2 590598876#1"/>
   </vehicle>
   <vehicle depart="559.3625498007968" departLane="best" departSpeed="max" id="veh1_517" type="veh_passenger">