<?xml version="1.0" ?>
<routes>
   <vType id="ped_type_0" r_alpha="0.349" lambda_alpha="0.344" A_alpha="1.603" B_alpha="0.312" vClass="pedestrian"/>
   <vType id="ped_type_1" r_alpha="0.338" lambda_alpha="0.343" A_alpha="1.663" B_alpha="0.324" vClass="pedestrian"/>
   <vType id="ped_type_2" r_alpha="0.349" lambda_alpha="0.346" A_alpha="1.747" B_alpha="0.336" vClass="pedestrian"/>
   <vType id="ped_type_3" r_alpha="0.366" lambda_alpha="0.352" A_alpha="1.675" B_alpha="0.323" vClass="pedestrian"/>
   <vType id="ped_type_4" r_alpha="0.400" lambda_alpha="0.355" A_alpha="1.740" B_alpha="0.315" vClass="pedestrian"/>
   <person id="ped4_449" type="ped_type_3" depart="0.0">
      <walk from="1197548869" to="1034625747#1"/>
   </person>
   <person id="ped1_665" type="ped_type_4" depart="0.0">
      <walk from="1197548845#0" to="232149477#0"/>
   </person>
   <person id="ped3_689" type="ped_type_3" depart="0.0">
      <walk from="590598876#1" to="-590598876#1"/>
   </person>
   <person id="ped5_1013" type="ped_type_2" depart="0.0">
      <walk from="-50799230#3" to="50799230#3"/>
   </person>
   <person id="ped6_1609" type="ped_type_3" depart="0.0">
      <walk from="-130285156#2" to="-50799230#3"/>
   </person>
   <person id="ped2_1636" type="ped_type_0" depart="0.0">
      <walk from="-130285156#2" to="130285156#2"/>
   </person>
   <person id="ped2_571" type="ped_type_0" depart="5.921052631578948">
      <walk from="-130285156#2" to="130285156#2"/>
   </person>
   <person id="ped1_1188" type="ped_type_2" depart="8.571428571428571">
      <walk from="1197548845#0" to="232149477#0"/>
   </person>
   <person id="ped3_2098" type="ped_type_2" depart="10.588235294117647">
      <walk from="590598876#1" to="-590598876#1"/>
   </person>
   <person id="ped2_1781" type="ped_type_0" depart="11.842105263157896">
      <walk from="-130285156#2" to="130285156#2"/>
   </person>
   <person id="ped4_271" type="ped_type_0" depart="12.0">
      <walk from="1197548869" to="1034625747#1"/>
   </person>
   <person id="ped5_458" type="ped_type_2" depart="15.254237288135593">
      <walk from="-50799230#3" to="50799230#3"/>
   </person>
   <person id="ped1_2100" type="ped_type_4" depart="17.142857142857142">
      <walk from="1197548845#0" to="232149477#0"/>
   </person>
   <person id="ped2_509" type="ped_type_3" depart="17.763157894736842">
      <walk from="-130285156#2" to="130285156#2"/>
   </person>
   <person id="ped3_583" type="ped_type_2" depart="21.176470588235293">
      <walk from="590598876#1" to="-590598876#1"/>
   </person>
   <person id="ped2_1423" type="ped_type_2" depart="23.68421052631579">
      <walk from="-130285156#2" to="130285156#2"/>
   </person>
   <person id="ped4_156" type="ped_type_0" depart="24.0">
      <walk from="1197548869" to="1034625747#1"/>
   </person>
   <person id="ped1_782" type="ped_type_1" depart="25.714285714285715">
      <walk from="1197548845#0" to="232149477#0"/>
   </person>
   <person id="ped6_1263" type="ped_type_2" depart="29.032258064516128">
      <walk from="-130285156#2" to="-50799230#3"/>
   </person>
   <person id="ped2_2033" type="ped_type_2" depart="29.605263157894736">
      <walk from="-130285156#2" to="130285156#2"/>
   </person>
   <person id="ped5_1109" type="ped_type_3" depart="30.508474576271187">
      <walk from="-50799230#3" to="50799230#3"/>
   </person>
   <person id="ped3_570" type="ped_type_4" depart="31.764705882352942">
      <walk from="590598876#1" to="-590598876#1"/>
   </person>
   <person id="ped1_98" type="ped_type_2" depart="34.285714285714285">
      <walk from="1197548845#0" to="232149477#0"/>
   </person>
   <person id="ped2_1337" type="ped_type_1" depart="35.526315789473685">
      <walk from="-130285156#2" to="130285156#2"/>
   </person>
   <person id="ped4_5" type="ped_type_4" depart="36.0">
      <walk from="1197548869" to="1034625747#1"/>
   </person>
   <person id="ped2_129" type="ped_type_3" depart="41.44736842105263">
      <walk from="-130285156#2" to="130285156#2"/>
   </person>
   <person id="ped3_435" type="ped_type_4" depart="42.35294117647059">
      <walk from="590598876#1" to="-590598876#1"/>
   </person>
   <person id="ped1_675" type="ped_type_4" depart="42.857142857142854">
      <walk from="1197548845#0" to="232149477#0"/>
   </person>
   <person id="ped5_1240" type="ped_type_4" depart="45.76271186440678">
      <walk from="-50799230#3" to="50799230#3"/>
   </person>
   <person id="ped2_132" type="ped_type_1" depart="47.36842105263158">
      <walk from="-130285156#2" to="130285156#2"/>
   </person>
   <person id="ped4_1440" type="ped_type_4" depart="48.0">
      <walk from="1197548869" to="1034625747#1"/>
   </person>
   <person id="ped1_1447" type="ped_type_1" depart="51.42857142857143">
      <walk from="1197548845#0" to="232149477#0"/>
   </person>
   <person id="ped3_1304" type="ped_type_3" depart="52.94117647058823">
      <walk from="590598876#1" to="-590598876#1"/>
   </person>
   <person id="ped2_1343" type="ped_type_2" depart="53.28947368421053">
      <walk from="-130285156#2" to="130285156#2"/>
   </person>
   <person id="ped6_43" type="ped_type_2" depart="58.064516129032256">
      <walk from="-130285156#2" to="-50799230#3"/>
   </person>
   <person id="ped2_30" type="ped_type_4" depart="59.21052631578947">
      <walk from="-130285156#2" to="130285156#2"/>
   </person>
   <person id="ped4_760" type="ped_type_4" depart="60.0">
      <walk from="1197548869" to="1034625747#1"/>
   </person>
   <person id="ped1_2099" type="ped_type_3" depart="60.0">
      <walk from="1197548845#0" to="232149477#0"/>
   </person>
   <person id="ped5_541" type="ped_type_0" depart="61.016949152542374">
      <walk from="-50799230#3" to="50799230#3"/>
   </person>
   <person id="ped3_2001" type="ped_type_0" depart="63.529411764705884">
      <walk from="590598876#1" to="-590598876#1"/>
   </person>
   <person id="ped2_1654" type="ped_type_3" depart="65.13157894736842">
      <walk from="-130285156#2" to="130285156#2"/>
   </person>
   <person id="ped1_1227" type="ped_type_1" depart="68.57142857142857">
      <walk from="1197548845#0" to="232149477#0"/>
   </person>
   <person id="ped2_893" type="ped_type_2" depart="71.05263157894737">
      <walk from="-130285156#2" to="130285156#2"/>
   </person>
   <person id="ped4_1351" type="ped_type_0" depart="72.0">
      <walk from="1197548869" to="1034625747#1"/>
   </person>
   <person id="ped3_2105" type="ped_type_4" depart="74.11764705882354">
      <walk from="590598876#1" to="-590598876#1"/>
   </person>
   <person id="ped5_736" type="ped_type_0" depart="76.27118644067797">
      <walk from="-50799230#3" to="50799230#3"/>
   </person>
   <person id="ped2_1253" type="ped_type_2" depart="76.97368421052632">
      <walk from="-130285156#2" to="130285156#2"/>
   </person>
   <person id="ped1_287" type="ped_type_1" depart="77.14285714285714">
      <walk from="1197548845#0" to="232149477#0"/>
   </person>
   <person id="ped2_707" type="ped_type_1" depart="82.89473684210526">
      <walk from="-130285156#2" to="130285156#2"/>
   </person>
   <person id="ped4_238" type="ped_type_2" depart="84.0">
      <walk from="1197548869" to="1034625747#1"/>
   </person>
   <person id="ped3_2040" type="ped_type_4" depart="84.70588235294117">
      <walk from="590598876#1" to="-590598876#1"/>
   </person>
   <person id="ped1_2066" type="ped_type_0" depart="85.71428571428571">
      <walk from="1197548845#0" to="232149477#0"/>
   </person>
   <person id="ped6_1912" type="ped_type_1" depart="87.09677419354838">
      <walk from="-130285156#2" to="-50799230#3"/>
   </person>
   <person id="ped2_1572" type="ped_type_1" depart="88.8157894736842">
      <walk from="-130285156#2" to="130285156#2"/>
   </person>
   <person id="ped5_1267" type="ped_type_1" depart="91.52542372881356">
      <walk from="-50799230#3" to="50799230#3"/>
   </person>
   <person id="ped1_964" type="ped_type_3" depart="94.28571428571429">
      <walk from="1197548845#0" to="232149477#0"/>
   </person>
   <person id="ped2_2101" type="ped_type_0" depart="94.73684210526316">
      <walk from="-130285156#2" to="130285156#2"/>
   </person>
   <person id="ped3_1445" type="ped_type_4" depart="95.29411764705883">
      <walk from="590598876#1" to="-590598876#1"/>
   </person>
   <person id="ped4_1330" type="ped_type_4" depart="96.0">
      <walk from="1197548869" to="1034625747#1"/>
   </person>
   <person id="ped2_1525" type="ped_type_4" depart="100.65789473684211">
      <walk from="-130285156#2" to="130285156#2"/>
   </person>
   <person id="ped1_1583" type="ped_type_2" depart="102.85714285714286">
      <walk from="1197548845#0" to="232149477#0"/>
   </person>
   <person id="ped3_853" type="ped_type_2" depart="105.88235294117646">
      <walk from="590598876#1" to="-590598876#1"/>
   </person>
   <person id="ped2_1186" type="ped_type_0" depart="106.57894736842105">
      <walk from="-130285156#2" to="130285156#2"/>
   </person>
   <person id="ped5_1392" type="ped_type_1" depart="106.77966101694915">
      <walk from="-50799230#3" to="50799230#3"/>
   </person>
   <person id="ped4_443" type="ped_type_2" depart="108.0">
      <walk from="1197548869" to="1034625747#1"/>
   </person>
   <person id="ped1_1465" type="ped_type_4" depart="111.42857142857143">
      <walk from="1197548845#0" to="232149477#0"/>
   </person>
   <person id="ped2_842" type="ped_type_1" depart="112.5">
      <walk from="-130285156#2" to="130285156#2"/>
   </person>
   <person id="ped6_24" type="ped_type_3" depart="116.12903225806451">
      <walk from="-130285156#2" to="-50799230#3"/>
   </person>
   <person id="ped3_1491" type="ped_type_0" depart="116.47058823529412">
      <walk from="590598876#1" to="-590598876#1"/>
   </person>
   <person id="ped2_444" type="ped_type_3" depart="118.42105263157895">
      <walk from="-130285156#2" to="130285156#2"/>
   </person>
   <person id="ped4_1214" type="ped_type_3" depart="120.0">
      <walk from="1197548869" to="1034625747#1"/>
   </person>
   <person id="ped1_2082" type="ped_type_1" depart="120.0">
      <walk from="1197548845#0" to="232149477#0"/>
   </person>
   <person id="ped5_563" type="ped_type_2" depart="122.03389830508475">
      <walk from="-50799230#3" to="50799230#3"/>
   </person>
   <person id="ped2_554" type="ped_type_3" depart="124.34210526315789">
      <walk from="-130285156#2" to="130285156#2"/>
   </person>
   <person id="ped3_1761" type="ped_type_0" depart="127.05882352941177">
      <walk from="590598876#1" to="-590598876#1"/>
   </person>
   <person id="ped1_235" type="ped_type_4" depart="128.57142857142858">
      <walk from="1197548845#0" to="232149477#0"/>
   </person>
   <person id="ped2_363" type="ped_type_2" depart="130.26315789473685">
      <walk from="-130285156#2" to="130285156#2"/>
   </person>
   <person id="ped4_1830" type="ped_type_4" depart="132.0">
      <walk from="1197548869" to="1034625747#1"/>
   </person>
   <person id="ped2_1369" type="ped_type_3" depart="136.18421052631578">
      <walk from="-130285156#2" to="130285156#2"/>
   </person>
   <person id="ped1_1167" type="ped_type_1" depart="137.14285714285714">
      <walk from="1197548845#0" to="232149477#0"/>
   </person>
   <person id="ped5_265" type="ped_type_4" depart="137.28813559322035">
      <walk from="-50799230#3" to="50799230#3"/>
   </person>
   <person id="ped3_2111" type="ped_type_0" depart="137.64705882352942">
      <walk from="590598876#1" to="-590598876#1"/>
   </person>
   <person id="ped2_1477" type="ped_type_1" depart="142.10526315789474">
      <walk from="-130285156#2" to="130285156#2"/>
   </person>
   <person id="ped4_473" type="ped_type_2" depart="144.0">
      <walk from="1197548869" to="1034625747#1"/>
   </person>
   <person id="ped6_1314" type="ped_type_3" depart="145.16129032258064">
      <walk from="-130285156#2" to="-50799230#3"/>
   </person>
   <person id="ped1_1468" type="ped_type_2" depart="145.71428571428572">
      <walk from="1197548845#0" to="232149477#0"/>
   </person>
   <person id="ped2_387" type="ped_type_1" depart="148.02631578947367">
      <walk from="-130285156#2" to="130285156#2"/>
   </person>
   <person id="ped3_1848" type="ped_type_2" depart="148.23529411764707">
      <walk from="590598876#1" to="-590598876#1"/>
   </person>
   <person id="ped5_624" type="ped_type_3" depart="152.54237288135593">
      <walk from="-50799230#3" to="50799230#3"/>
   </person>
   <person id="ped2_808" type="ped_type_2" depart="153.94736842105263">
      <walk from="-130285156#2" to="130285156#2"/>
   </person>
   <person id="ped1_1481" type="ped_type_0" depart="154.28571428571428">
      <walk from="1197548845#0" to="232149477#0"/>
   </person>
   <person id="ped4_1685" type="ped_type_4" depart="156.0">
      <walk from="1197548869" to="1034625747#1"/>
   </person>
   <person id="ped3_17" type="ped_type_1" depart="158.8235294117647">
      <walk from="590598876#1" to="-590598876#1"/>
   </person>
   <person id="ped2_419" type="ped_type_3" depart="159.8684210526316">
      <walk from="-130285156#2" to="130285156#2"/>
   </person>
   <person id="ped1_1951" type="ped_type_0" depart="162.85714285714286">
      <walk from="1197548845#0" to="232149477#0"/>
   </person>
   <person id="ped2_601" type="ped_type_0" depart="165.78947368421052">
      <walk from="-130285156#2" to="130285156#2"/>
   </person>
   <person id="ped5_932" type="ped_type_1" depart="167.79661016949152">
      <walk from="-50799230#3" to="50799230#3"/>
   </person>
   <person id="ped4_1552" type="ped_type_1" depart="168.0">
      <walk from="1197548869" to="1034625747#1"/>
   </person>
   <person id="ped3_787" type="ped_type_1" depart="169.41176470588235">
      <walk from="590598876#1" to="-590598876#1"/>
   </person>
   <person id="ped1_1610" type="ped_type_4" depart="171.42857142857142">
      <walk from="1197548845#0" to="232149477#0"/>
   </person>
   <person id="ped2_745" type="ped_type_4" depart="171.71052631578948">
      <walk from="-130285156#2" to="130285156#2"/>
   </person>
   <person id="ped6_1746" type="ped_type_0" depart="174.19354838709677">
      <walk from="-130285156#2" to="-50799230#3"/>
   </person>
   <person id="ped2_1689" type="ped_type_3" depart="177.6315789473684">
      <walk from="-130285156#2" to="130285156#2"/>
   </person>
   <person id="ped1_73" type="ped_type_2" depart="180.0">
      <walk from="1197548845#0" to="232149477#0"/>
   </person>
   <person id="ped4_585" type="ped_type_4" depart="180.0">
      <walk from="1197548869" to="1034625747#1"/>
   </person>
   <person id="ped3_1700" type="ped_type_4" depart="180.0">
      <walk from="590598876#1" to="-590598876#1"/>
   </person>
   <person id="ped5_1835" type="ped_type_4" depart="183.05084745762713">
      <walk from="-50799230#3" to="50799230#3"/>
   </person>
   <person id="ped2_1208" type="ped_type_2" depart="183.55263157894737">
      <walk from="-130285156#2" to="130285156#2"/>
   </person>
   <person id="ped1_1297" type="ped_type_1" depart="188.57142857142858">
      <walk from="1197548845#0" to="232149477#0"/>
   </person>
   <person id="ped2_1795" type="ped_type_4" depart="189.47368421052633">
      <walk from="-130285156#2" to="130285156#2"/>
   </person>
   <person id="ped3_1690" type="ped_type_4" depart="190.58823529411765">
      <walk from="590598876#1" to="-590598876#1"/>
   </person>
   <person id="ped4_122" type="ped_type_1" depart="192.0">
      <walk from="1197548869" to="1034625747#1"/>
   </person>
   <person id="ped2_1983" type="ped_type_2" depart="195.39473684210526">
      <walk from="-130285156#2" to="130285156#2"/>
   </person>
   <person id="ped1_1791" type="ped_type_0" depart="197.14285714285714">
      <walk from="1197548845#0" to="232149477#0"/>
   </person>
   <person id="ped5_2071" type="ped_type_0" depart="198.3050847457627">
      <walk from="-50799230#3" to="50799230#3"/>
   </person>
   <person id="ped3_2078" type="ped_type_2" depart="201.1764705882353">
      <walk from="590598876#1" to="-590598876#1"/>
   </person>
   <person id="ped2_1058" type="ped_type_2" depart="201.31578947368422">
      <walk from="-130285156#2" to="130285156#2"/>
   </person>
   <person id="ped6_1057" type="ped_type_1" depart="203.2258064516129">
      <walk from="-130285156#2" to="-50799230#3"/>
   </person>
   <person id="ped4_1320" type="ped_type_4" depart="204.0">
      <walk from="1197548869" to="1034625747#1"/>
   </person>
   <person id="ped1_49" type="ped_type_3" depart="205.71428571428572">
      <walk from="1197548845#0" to="232149477#0"/>
   </person>
   <person id="ped2_1025" type="ped_type_4" depart="207.23684210526315">
      <walk from="-130285156#2" to="130285156#2"/>
   </person>
   <person id="ped3_142" type="ped_type_1" depart="211.76470588235293">
      <walk from="590598876#1" to="-590598876#1"/>
   </person>
   <person id="ped2_1575" type="ped_type_4" depart="213.1578947368421">
      <walk from="-130285156#2" to="130285156#2"/>
   </person>
   <person id="ped5_1560" type="ped_type_4" depart="213.5593220338983">
      <walk from="-50799230#3" to="50799230#3"/>
   </person>
   <person id="ped1_529" type="ped_type_3" depart="214.28571428571428">
      <walk from="1197548845#0" to="232149477#0"/>
   </person>
   <person id="ped4_2038" type="ped_type_2" depart="216.0">
      <walk from="1197548869" to="1034625747#1"/>
   </person>
   <person id="ped2_1348" type="ped_type_2" depart="219.07894736842104">
      <walk from="-130285156#2" to="130285156#2"/>
   </person>
   <person id="ped3_2079" type="ped_type_3" depart="222.35294117647058">
      <walk from="590598876#1" to="-590598876#1"/>
   </person>
   <person id="ped1_1421" type="ped_type_0" depart="222.85714285714286">
      <walk from="1197548845#0" to="232149477#0"/>
   </person>
   <person id="ped2_1122" type="ped_type_1" depart="225.0">
      <walk from="-130285156#2" to="130285156#2"/>
   </person>
   <person id="ped4_1666" type="ped_type_0" depart="228.0">
      <walk from="1197548869" to="1034625747#1"/>
   </person>
   <person id="ped5_1397" type="ped_type_1" depart="228.8135593220339">
      <walk from="-50799230#3" to="50799230#3"/>
   </person>
   <person id="ped2_1930" type="ped_type_4" depart="230.92105263157896">
      <walk from="-130285156#2" to="130285156#2"/>
   </person>
   <person id="ped1_245" type="ped_type_4" depart="231.42857142857142">
      <walk from="1197548845#0" to="232149477#0"/>
   </person>
   <person id="ped6_786" type="ped_type_0" depart="232.25806451612902">
      <walk from="-130285156#2" to="-50799230#3"/>
   </person>
   <person id="ped3_1002" type="ped_type_1" depart="232.94117647058823">
      <walk from="590598876#1" to="-590598876#1"/>
   </person>
   <person id="ped2_85" type="ped_type_4" depart="236.8421052631579">
      <walk from="-130285156#2" to="130285156#2"/>
   </person>
   <person id="ped1_851" type="ped_type_0" depart="240.0">
      <walk from="1197548845#0" to="232149477#0"/>
   </person>
   <person id="ped4_1842" type="ped_type_1" depart="240.0">
      <walk from="1197548869" to="1034625747#1"/>
   </person>
   <person id="ped2_358" type="ped_type_2" depart="242.76315789473685">
      <walk from="-130285156#2" to="130285156#2"/>
   </person>
   <person id="ped3_1044" type="ped_type_3" depart="243.52941176470588">
      <walk from="590598876#1" to="-590598876#1"/>
   </person>
   <person id="ped5_1225" type="ped_type_4" depart="244.0677966101695">
      <walk from="-50799230#3" to="50799230#3"/>
   </person>
   <person id="ped1_415" type="ped_type_4" depart="248.57142857142858">
      <walk from="1197548845#0" to="232149477#0"/>
   </person>
   <person id="ped2_1355" type="ped_type_4" depart="248.68421052631578">
      <walk from="-130285156#2" to="130285156#2"/>
   </person>
   <person id="ped4_1734" type="ped_type_3" depart="252.0">
      <walk from="1197548869" to="1034625747#1"/>
   </person>
   <person id="ped3_1745" type="ped_type_4" depart="254.11764705882354">
      <walk from="590598876#1" to="-590598876#1"/>
   </person>
   <person id="ped2_396" type="ped_type_0" depart="254.60526315789474">
      <walk from="-130285156#2" to="130285156#2"/>
   </person>
   <person id="ped1_763" type="ped_type_2" depart="257.14285714285717">
      <walk from="1197548845#0" to="232149477#0"/>
   </person>
   <person id="ped5_1067" type="ped_type_1" depart="259.3220338983051">
      <walk from="-50799230#3" to="50799230#3"/>
   </person>
   <person id="ped2_1999" type="ped_type_3" depart="260.5263157894737">
      <walk from="-130285156#2" to="130285156#2"/>
   </person>
   <person id="ped6_1248" type="ped_type_2" depart="261.2903225806452">
      <walk from="-130285156#2" to="-50799230#3"/>
   </person>
   <person id="ped4_323" type="ped_type_2" depart="264.0">
      <walk from="1197548869" to="1034625747#1"/>
   </person>
   <person id="ped3_981" type="ped_type_0" depart="264.70588235294116">
      <walk from="590598876#1" to="-590598876#1"/>
   </person>
   <person id="ped1_771" type="ped_type_0" depart="265.7142857142857">
      <walk from="1197548845#0" to="232149477#0"/>
   </person>
   <person id="ped2_952" type="ped_type_1" depart="266.44736842105266">
      <walk from="-130285156#2" to="130285156#2"/>
   </person>
   <person id="ped2_798" type="ped_type_2" depart="272.36842105263156">
      <walk from="-130285156#2" to="130285156#2"/>
   </person>
   <person id="ped1_1316" type="ped_type_0" depart="274.2857142857143">
      <walk from="1197548845#0" to="232149477#0"/>
   </person>
   <person id="ped5_313" type="ped_type_2" depart="274.5762711864407">
      <walk from="-50799230#3" to="50799230#3"/>
   </person>
   <person id="ped3_1255" type="ped_type_4" depart="275.29411764705884">
      <walk from="590598876#1" to="-590598876#1"/>
   </person>
   <person id="ped4_1672" type="ped_type_1" depart="276.0">
      <walk from="1197548869" to="1034625747#1"/>
   </person>
   <person id="ped2_1266" type="ped_type_0" depart="278.2894736842105">
      <walk from="-130285156#2" to="130285156#2"/>
   </person>
   <person id="ped1_71" type="ped_type_0" depart="282.85714285714283">
      <walk from="1197548845#0" to="232149477#0"/>
   </person>
   <person id="ped2_966" type="ped_type_0" depart="284.2105263157895">
      <walk from="-130285156#2" to="130285156#2"/>
   </person>
   <person id="ped3_864" type="ped_type_3" depart="285.88235294117646">
      <walk from="590598876#1" to="-590598876#1"/>
   </person>
   <person id="ped4_1164" type="ped_type_3" depart="288.0">
      <walk from="1197548869" to="1034625747#1"/>
   </person>
   <person id="ped5_1798" type="ped_type_2" depart="289.8305084745763">
      <walk from="-50799230#3" to="50799230#3"/>
   </person>
   <person id="ped2_293" type="ped_type_2" depart="290.13157894736844">
      <walk from="-130285156#2" to="130285156#2"/>
   </person>
   <person id="ped6_1555" type="ped_type_4" depart="290.3225806451613">
      <walk from="-130285156#2" to="-50799230#3"/>
   </person>
   <person id="ped1_538" type="ped_type_2" depart="291.42857142857144">
      <walk from="1197548845#0" to="232149477#0"/>
   </person>
   <person id="ped2_1158" type="ped_type_2" depart="296.05263157894734">
      <walk from="-130285156#2" to="130285156#2"/>
   </person>
   <person id="ped3_971" type="ped_type_0" depart="296.47058823529414">
      <walk from="590598876#1" to="-590598876#1"/>
   </person>
   <person id="ped1_1232" type="ped_type_1" depart="300.0">
      <walk from="1197548845#0" to="232149477#0"/>
   </person>
   <person id="ped4_2044" type="ped_type_3" depart="300.0">
      <walk from="1197548869" to="1034625747#1"/>
   </person>
   <person id="ped2_284" type="ped_type_3" depart="301.9736842105263">
      <walk from="-130285156#2" to="130285156#2"/>
   </person>
   <person id="ped5_455" type="ped_type_4" depart="305.08474576271186">
      <walk from="-50799230#3" to="50799230#3"/>
   </person>
   <person id="ped3_1649" type="ped_type_3" depart="307.05882352941177">
      <walk from="590598876#1" to="-590598876#1"/>
   </person>
   <person id="ped2_1759" type="ped_type_3" depart="307.89473684210526">
      <walk from="-130285156#2" to="130285156#2"/>
   </person>
   <person id="ped1_267" type="ped_type_1" depart="308.57142857142856">
      <walk from="1197548845#0" to="232149477#0"/>
   </person>
   <person id="ped4_1412" type="ped_type_1" depart="312.0">
      <walk from="1197548869" to="1034625747#1"/>
   </person>
   <person id="ped2_532" type="ped_type_1" depart="313.8157894736842">
      <walk from="-130285156#2" to="130285156#2"/>
   </person>
   <person id="ped1_52" type="ped_type_1" depart="317.14285714285717">
      <walk from="1197548845#0" to="232149477#0"/>
   </person>
   <person id="ped3_23" type="ped_type_2" depart="317.6470588235294">
      <walk from="590598876#1" to="-590598876#1"/>
   </person>
   <person id="ped6_262" type="ped_type_1" depart="319.35483870967744">
      <walk from="-130285156#2" to="-50799230#3"/>
   </person>
   <person id="ped2_1300" type="ped_type_4" depart="319.7368421052632">
      <walk from="-130285156#2" to="130285156#2"/>
   </person>
   <person id="ped5_258" type="ped_type_2" depart="320.33898305084745">
      <walk from="-50799230#3" to="50799230#3"/>
   </person>
   <person id="ped4_1903" type="ped_type_2" depart="324.0">
      <walk from="1197548869" to="1034625747#1"/>
   </person>
   <person id="ped2_1932" type="ped_type_1" depart="325.6578947368421">
      <walk from="-130285156#2" to="130285156#2"/>
   </person>
   <person id="ped1_173" type="ped_type_2" depart="325.7142857142857">
      <walk from="1197548845#0" to="232149477#0"/>
   </person>
   <person id="ped3_116" type="ped_type_0" depart="328.2352941176471">
      <walk from="590598876#1" to="-590598876#1"/>
   </person>
   <person id="ped2_1424" type="ped_type_3" depart="331.57894736842104">
      <walk from="-130285156#2" to="130285156#2"/>
   </person>
   <person id="ped1_572" type="ped_type_1" depart="334.2857142857143">
      <walk from="1197548845#0" to="232149477#0"/>
   </person>
   <person id="ped5_1387" type="ped_type_1" depart="335.59322033898303">
      <walk from="-50799230#3" to="50799230#3"/>
   </person>
   <person id="ped4_1716" type="ped_type_0" depart="336.0">
      <walk from="1197548869" to="1034625747#1"/>
   </person>
   <person id="ped2_604" type="ped_type_3" depart="337.5">
      <walk from="-130285156#2" to="130285156#2"/>
   </person>
   <person id="ped3_201" type="ped_type_0" depart="338.8235294117647">
      <walk from="590598876#1" to="-590598876#1"/>
   </person>
   <person id="ped1_878" type="ped_type_2" depart="342.85714285714283">
      <walk from="1197548845#0" to="232149477#0"/>
   </person>
   <person id="ped2_2102" type="ped_type_1" depart="343.42105263157896">
      <walk from="-130285156#2" to="130285156#2"/>
   </person>
   <person id="ped4_1628" type="ped_type_2" depart="348.0">
      <walk from="1197548869" to="1034625747#1"/>
   </person>
   <person id="ped6_2003" type="ped_type_2" depart="348.38709677419354">
      <walk from="-130285156#2" to="-50799230#3"/>
   </person>
   <person id="ped2_1963" type="ped_type_2" depart="349.3421052631579">
      <walk from="-130285156#2" to="130285156#2"/>
   </person>
   <person id="ped3_1786" type="ped_type_0" depart="349.4117647058824">
      <walk from="590598876#1" to="-590598876#1"/>
   </person>
   <person id="ped5_936" type="ped_type_0" depart="350.8474576271187">
      <walk from="-50799230#3" to="50799230#3"/>
   </person>
   <person id="ped1_1291" type="ped_type_0" depart="351.42857142857144">
      <walk from="1197548845#0" to="232149477#0"/>
   </person>
   <person id="ped2_418" type="ped_type_2" depart="355.2631578947368">
      <walk from="-130285156#2" to="130285156#2"/>
   </person>
   <person id="ped1_565" type="ped_type_4" depart="360.0">
      <walk from="1197548845#0" to="232149477#0"/>
   </person>
   <person id="ped4_924" type="ped_type_3" depart="360.0">
      <walk from="1197548869" to="1034625747#1"/>
   </person>
   <person id="ped3_2006" type="ped_type_0" depart="360.0">
      <walk from="590598876#1" to="-590598876#1"/>
   </person>
   <person id="ped2_1966" type="ped_type_0" depart="361.1842105263158">
      <walk from="-130285156#2" to="130285156#2"/>
   </person>
   <person id="ped5_1052" type="ped_type_1" depart="366.10169491525426">
      <walk from="-50799230#3" to="50799230#3"/>
   </person>
   <person id="ped2_1629" type="ped_type_3" depart="367.10526315789474">
      <walk from="-130285156#2" to="130285156#2"/>
   </person>
   <person id="ped1_1917" type="ped_type_1" depart="368.57142857142856">
      <walk from="1197548845#0" to="232149477#0"/>
   </person>
   <person id="ped3_377" type="ped_type_1" depart="370.5882352941176">
      <walk from="590598876#1" to="-590598876#1"/>
   </person>
   <person id="ped4_1564" type="ped_type_3" depart="372.0">
      <walk from="1197548869" to="1034625747#1"/>
   </person>
   <person id="ped2_2108" type="ped_type_2" depart="373.0263157894737">
      <walk from="-130285156#2" to="130285156#2"/>
   </person>
   <person id="ped1_1090" type="ped_type_4" depart="377.14285714285717">
      <walk from="1197548845#0" to="232149477#0"/>
   </person>
   <person id="ped6_463" type="ped_type_2" depart="377.4193548387097">
      <walk from="-130285156#2" to="-50799230#3"/>
   </person>