<?xml version="1.0" encoding="UTF-8"?>

<!-- generated on 06/27/24 13:41:05 by Eclipse SUMO polyconvert Version 1.2.0
<configuration xmlns:xsi="http://www.w3.org/2001/XMLSchema-instance" xsi:noNamespaceSchemaLocation="http://sumo.dlr.de/xsd/polyconvertConfiguration.xsd">

    <input>
        <net-file value="osm.net.xml"/>
        <osm-files value="osm_bbox.osm.xml"/>
        <osm.keep-full-type value="true"/>
        <type-file value="C:\Program%20Files%20(x86)\Eclipse\Sumo\data\typemap\osmPolyconvert.typ.xml"/>
    </input>

    <output>
        <output-file value="osm.poly.xml"/>
    </output>

    <processing>
        <poi-layer-offset value="5"/>
    </processing>

    <report>
        <verbose value="true"/>
    </report>

</configuration>
-->

<additional xmlns:xsi="http://www.w3.org/2001/XMLSchema-instance" xsi:noNamespaceSchemaLocation="http://sumo.dlr.de/xsd/additional_file.xsd">
    <location netOffset="-320402.22,-4307390.74" convBoundary="0.00,-162.99,3700.33,551.97" origBoundary="-77.070987,38.896061,-77.028413,38.902368" projParameter="+proj=utm +zone=18 +ellps=WGS84 +datum=WGS84 +units=m +no_defs"/>

    <poly id="148284755" type="building.yes" color="255,230,230" fill="1" layer="-1.00" shape="1862.064498,251.587194 1862.795009,277.143376 1850.317212,277.512633 1828.976573,278.103327 1829.892005,309.951348 1831.574222,309.902432 1838.554595,309.701119 1845.084496,309.532145 1848.535906,309.443469 1856.834500,309.212545 1868.098344,308.881680 1871.549754,308.793015 1886.941214,308.347213 1887.334266,320.819318 1887.733278,335.101248 1890.820182,335.009676 1891.202480,348.548011 1915.516831,347.857352 1912.722685,250.138001 1884.341095,250.942250 1862.064498,251.587194"/>
    <poly id="153662270" type="building.yes" color="255,230,230" fill="1" layer="-1.00" shape="1882.336449,511.565766 1883.931187,513.417615 1895.807245,507.909637 1895.790729,506.788500 1904.773418,502.644725 1906.347566,504.352689 1919.506349,498.393973 1917.569601,433.045811 1917.190717,422.361137 1886.027408,423.294538 1884.267125,438.402275 1884.329757,451.614675 1886.438972,462.460340 1887.444974,465.913299 1878.462250,470.057092 1872.025828,464.727445 1861.694958,459.074479 1852.548469,456.703910 1841.137728,455.894394 1841.227548,458.346369 1835.268457,458.813436 1835.828881,492.623757 1847.850917,495.540394 1858.433133,500.410409 1868.577960,506.667168 1876.769184,514.022726 1882.336449,511.565766"/>
    <poly id="153662277" type="building.retail" color="255,230,230" fill="1" layer="-1.00" shape="1893.985632,421.050360 1916.418601,420.435278 1915.136615,373.416280 1895.825092,373.939011 1892.703513,374.031361 1893.985632,421.050360"/>
    <poly id="153662277#1" type="shop.supermarket" color="237,199,255" fill="1" layer="-1.00" shape="1893.985632,421.050360 1916.418601,420.435278 1915.136615,373.416280 1895.825092,373.939011 1892.703513,374.031361 1893.985632,421.050360"/>
    <poly id="153662280" type="building.yes" color="255,230,230" fill="1" layer="-1.00" shape="1834.858534,438.646603 1855.530966,438.070919 1855.561833,434.039458 1854.908576,408.448220 1878.041112,408.072701 1882.209294,407.834682 1881.494876,385.309537 1853.321349,385.698401 1838.672873,385.994329 1833.893368,386.057343 1834.858534,438.646603"/>
    <poly id="237887426" type="leisure.park" color="207,245,201" fill="1" layer="-2.00" shape="1767.564851,370.104065 1767.430150,366.043013 1767.231937,359.929140 1798.211641,358.921684 1798.406337,364.880179 1798.544764,369.107708 1767.564851,370.104065"/>
    <poly id="237887427" type="leisure.park" color="207,245,201" fill="1" layer="-2.00" shape="1766.711031,356.443078 1766.578702,351.715729 1797.800829,351.069256 1797.959406,355.807118 1766.711031,356.443078"/>
    <poly id="237887734" type="amenity.hospital" color="237,199,199" fill="1" layer="-1.00" shape="1805.448231,477.028182 1804.719958,446.563948 1804.396463,432.946556 1802.530155,432.910786 1802.409074,428.682866 1804.083342,428.667434 1803.728084,416.338826 1803.486482,408.293825 1802.401457,403.643415 1800.120446,399.441847 1796.823633,395.984880 1793.812254,394.031647 1786.923302,392.121179 1771.080971,392.188682 1770.969414,393.401531 1767.853270,393.349456 1767.809971,392.195608 1766.699651,392.209471 1766.686737,390.477530 1749.254415,390.836221 1749.303021,392.611776 1748.231571,392.424895 1748.315303,393.833226 1743.534054,393.818605 1743.320171,392.024559 1745.639951,392.161159 1745.464742,385.913519 1744.769950,385.884728 1744.687016,378.724481 1719.676952,379.342487 1719.921690,386.365847 1718.758835,386.358690 1719.015155,400.455070 1721.566842,400.486510 1722.221598,404.136120 1725.269623,407.332157 1728.459999,405.283880 1729.062268,406.214179 1726.504228,408.214921 1727.229658,409.220178 1726.033744,410.057671 1782.880575,485.152953 1789.542330,493.941926 1791.030600,492.986828 1793.937439,495.308842 1797.619799,495.847878 1800.885084,494.430876 1802.644820,492.814538 1803.047118,492.183667 1803.893336,489.299798 1803.670566,482.864459 1805.701136,482.874328 1805.448231,477.028182"/>
    <poly id="237887734#1" type="building.hospital" color="255,230,230" fill="1" layer="-1.00" shape="1805.448231,477.028182 1804.719958,446.563948 1804.396463,432.946556 1802.530155,432.910786 1802.409074,428.682866 1804.083342,428.667434 1803.728084,416.338826 1803.486482,408.293825 1802.401457,403.643415 1800.120446,399.441847 1796.823633,395.984880 1793.812254,394.031647 1786.923302,392.121179 1771.080971,392.188682 1770.969414,393.401531 1767.853270,393.349456 1767.809971,392.195608 1766.699651,392.209471 1766.686737,390.477530 1749.254415,390.836221 1749.303021,392.611776 1748.231571,392.424895 1748.315303,393.833226 1743.534054,393.818605 1743.320171,392.024559 1745.639951,392.161159 1745.464742,385.913519 1744.769950,385.884728 1744.687016,378.724481 1719.676952,379.342487 1719.921690,386.365847 1718.758835,386.358690 1719.015155,400.455070 1721.566842,400.486510 1722.221598,404.136120 1725.269623,407.332157 1728.459999,405.283880 1729.062268,406.214179 1726.504228,408.214921 1727.229658,409.220178 1726.033744,410.057671 1782.880575,485.152953 1789.542330,493.941926 1791.030600,492.986828 1793.937439,495.308842 1797.619799,495.847878 1800.885084,494.430876 1802.644820,492.814538 1803.047118,492.183667 1803.893336,489.299798 1803.670566,482.864459 1805.701136,482.874328 1805.448231,477.028182"/>
    <poly id="237887749" type="leisure.park" color="207,245,201" fill="1" layer="-2.00" shape="1855.561833,434.039458 1878.432626,433.603194 1878.041112,408.072701 1854.908576,408.448220 1855.561833,434.039458"/>
    <poly id="330280879" type="natural.scrub" color="140,196,107" fill="1" layer="-4.00" shape="1917.629732,332.219817 1919.242564,332.172478 1919.077578,327.146057 1917.456072,327.193590 1917.629732,332.219817"/>
    <poly id="330280882" type="natural.scrub" color="140,196,107" fill="1" layer="-4.00" shape="1917.872515,340.708949 1919.640952,340.635906 1919.399939,334.156564 1917.631252,334.218509 1917.872515,340.708949"/>
    <poly id="333193623" type="leisure.park" color="207,245,201" fill="1" layer="-2.00" shape="1858.236193,349.188898 1861.435834,349.094781 1860.953888,332.282992 1857.753990,332.366011 1858.236193,349.188898"/>
    <poly id="66409172" type="building.yes" color="255,230,230" fill="1" layer="-1.00" shape="1850.317212,277.512633 1850.056783,252.412255 1847.471858,252.448142 1847.453035,250.838479 1841.580704,250.926045 1841.600718,252.202560 1829.361721,252.388816 1829.472643,260.025903 1830.600076,260.000561 1830.812953,273.331729 1829.693944,273.345777 1829.772452,277.996605 1850.317212,277.512633"/>
    <poly id="66409195" type="building.yes" color="255,230,230" fill="1" layer="-1.00" shape="1851.864349,350.597963 1851.836163,349.343840 1858.236193,349.188898 1857.684361,332.356471 1849.314416,332.500167 1849.187660,324.930061 1848.986457,313.275341 1845.092252,313.351761 1845.024038,309.544608 1838.554595,309.701119 1831.574222,309.902432 1831.634974,311.833170 1830.732783,311.842345 1830.858308,319.356959 1831.448288,319.354802 1831.983640,349.734531 1840.691794,349.583214 1840.708316,350.704350 1844.828236,350.633958 1844.805786,349.635099 1847.581225,349.583823 1847.605919,350.682568 1851.864349,350.597963"/>
    <poly id="66409273" type="building.yes" color="255,230,230" fill="1" layer="-1.00" shape="1869.380561,348.949549 1891.160558,348.226936 1890.820182,335.009676 1887.733278,335.101248 1887.334266,320.819318 1872.193833,321.237271 1872.501908,335.332477 1869.084950,335.409264 1869.380561,348.949549"/>
    <poly id="66417764" type="building.university" color="255,230,230" fill="1" layer="-1.00" shape="1799.277054,254.630761 1796.518926,254.681663 1796.504205,254.026856 1774.110624,254.485909 1774.128840,255.296094 1771.281303,255.615512 1771.996760,281.260874 1774.920655,281.250652 1775.015729,285.479156 1770.175454,285.543571 1770.146633,283.489971 1747.986542,283.910540 1748.028035,286.141521 1743.242041,286.304668 1743.204912,281.952717 1745.928091,281.891477 1745.389501,262.571443 1718.227026,263.182315 1719.267025,314.437426 1726.977385,314.286220 1727.037605,317.349583 1719.283885,317.501765 1719.810039,343.595553 1723.105830,343.532530 1723.128545,344.542488 1744.689319,344.102005 1744.658869,342.747995 1747.451656,342.696294 1746.918420,316.669293 1744.151641,316.720409 1744.062039,312.736070 1748.606684,312.644974 1748.648364,314.498413 1770.859655,314.043377 1770.816983,312.145544 1776.081446,312.038279 1776.255249,320.540070 1762.369827,320.818975 1762.982936,350.786115 1801.221842,350.015190 1799.277054,254.630761"/>
    <poly id="66678705" type="amenity.university" color="237,199,199" fill="1" layer="-1.00" shape="1580.338535,-55.388629 1586.287421,-37.434011 1591.733044,-13.693955 1593.389412,6.311586 1596.897671,42.287498 1585.996915,93.467132 1594.222705,111.581485 1688.687476,41.621409 1702.708216,68.555377 1705.933944,414.107482 1708.697722,501.101096 1709.512331,551.972656 1751.887803,548.832057 1758.384731,537.559690 1766.043763,526.261197 1788.166339,506.065173 1804.041603,497.824373 1821.975630,495.477990 1821.577632,477.387343 1821.037695,459.544176 1820.778954,451.122023 1820.650836,446.194707 1819.837651,415.810113 1818.691512,372.929853 1818.452803,364.240753 1919.772238,361.541854 1930.117224,361.253925 1930.502503,375.314081 1931.070467,395.188648 1932.470168,444.747824 1933.949002,496.670386 2109.373786,414.703330 2106.490513,348.477037 2260.489100,345.488741 2252.527437,31.823665 2303.781439,30.574673 2301.968021,-23.227963 2373.864733,-25.283393 2376.601626,-25.511277 2379.563486,-26.155047 2380.500469,-28.485671 2378.436669,-138.413348 2375.678259,-153.086540 2374.554301,-161.811300 2368.601294,-162.988190 2268.649059,-160.947897 2265.197486,-157.761398 2264.065162,-153.694157 2261.952741,-120.579090 2270.539724,-120.738292 2285.247332,-121.145732 2298.669068,-122.012898 2316.115809,-122.936942 2316.121936,-94.788453 2270.984530,-93.543468 2263.486385,-93.586341 2264.009224,-83.038160 2266.110622,-23.367962 2266.309511,-11.013669 2103.981422,-6.528693 2105.026298,-62.049997 2073.597129,-61.666678 2075.340711,-12.204112 2049.527805,-11.735760 2019.854730,-11.213973 2019.332615,-23.261216 2019.268280,-26.513250 2018.824063,-47.845202 2018.780660,-50.164968 1989.149105,-49.333093 1989.540813,-22.614507 1990.000568,-10.254950 1986.895935,-10.174131 1973.236188,-9.867385 1972.456918,-47.659085 1967.511871,-47.614657 1969.055622,-9.784604 1918.441138,-8.248016 1914.121343,-83.891549 1912.525898,-86.542883 1909.518578,-86.764030 1884.142758,-68.760606 1886.449835,-41.774128 1876.852876,-41.769476 1876.046886,-2.720696 1795.707811,0.905947 1795.603067,-142.333773 1790.660873,-147.563719 1738.993611,-147.268228 1641.309608,-133.878252 1619.330372,-131.151815 1607.685208,-126.914529 1596.088421,-118.214485 1589.588890,-112.438463 1583.625802,-105.575206 1579.157598,-95.136772 1576.979595,-83.184207 1576.237834,-76.815993 1576.514764,-69.138220 1580.338535,-55.388629"/>
    <poly id="681496930" type="building.roof" color="255,230,230" fill="1" layer="-1.00" shape="1853.321349,385.698401 1838.672873,385.994329 1838.500599,380.646053 1853.314111,380.357520 1853.321349,385.698401"/>
    <poi id="2276095993" type="amenity.bicycle_rental" color="237,199,199" layer="4.00" x="1919.73" y="381.99"/>
    <poi id="2405210945" type="amenity.parking" color="184,184,179" layer="4.00" x="1908.54" y="457.10"/>
    <poi id="2457606304" type="amenity.parking" color="184,184,179" layer="4.00" x="1839.09" y="391.61"/>
    <poi id="2778688818" type="amenity.restaurant" color="237,199,199" layer="4.00" x="1835.93" y="389.83"/>
    <poi id="2778688821" type="amenity.bank" color="237,199,199" layer="4.00" x="1832.18" y="415.60"/>
    <poi id="2998040300" type="amenity.cafe" color="237,199,199" layer="4.00" x="1793.61" y="292.26"/>
    <poi id="2998046650" type="amenity.cafe" color="237,199,199" layer="4.00" x="1836.98" y="462.17"/>
    <poi id="2999912041" type="amenity.restaurant" color="237,199,199" layer="4.00" x="1862.14" y="392.51"/>
    <poi id="3000023676" type="amenity.fast_food" color="237,199,199" layer="4.00" x="1852.83" y="392.26"/>
    <poi id="3372389883" type="amenity.restaurant" color="237,199,199" layer="4.00" x="1910.00" y="343.31"/>
    <poi id="3372390006" type="natural.tree" color="140,196,107" layer="1.00" x="1913.49" y="355.13"/>
    <poi id="3372390007" type="natural.tree" color="140,196,107" layer="1.00" x="1903.34" y="355.96"/>
    <poi id="3372390024" type="amenity.loading_dock" color="237,199,199" layer="4.00" x="1917.57" y="433.05"/>
    <poi id="3380466556" type="amenity.bank" color="237,199,199" layer="4.00" x="1911.35" y="485.17"/>
    <poi id="3382119817" type="amenity.parking_entrance" color="237,199,199" layer="4.00" x="1884.34" y="250.94"/>
    <poi id="3403048242" type="tourism.artwork" color="207,245,201" layer="3.00" x="1799.23" y="363.43"/>
    <poi id="3480519758" type="amenity.post_box" color="237,199,199" layer="4.00" x="1809.35" y="381.31"/>
    <poi id="5071757021" type="man_made.surveillance" color="255,230,230" layer="4.00" x="1912.45" y="251.60"/>
    <poi id="5071757022" type="man_made.surveillance" color="255,230,230" layer="4.00" x="1915.52" y="338.14"/>
    <poi id="5071761224" type="man_made.surveillance" color="255,230,230" layer="4.00" x="1912.99" y="348.86"/>
    <poi id="5071761232" type="man_made.surveillance" color="255,230,230" layer="4.00" x="1918.89" y="298.87"/>
    <poi id="6382061491" type="amenity.bench" color="237,199,199" layer="4.00" x="1860.30" y="339.05"/>
    <poi id="6382061492" type="amenity.bench" color="237,199,199" layer="4.00" x="1859.51" y="345.10"/>
</additional>
