<?xml version="1.0" encoding="UTF-8"?>

<!-- generated on 06/27/24 13:41:05 by Eclipse SUMO duarouter Version 1.2.0
<configuration xmlns:xsi="http://www.w3.org/2001/XMLSchema-instance" xsi:noNamespaceSchemaLocation="http://sumo.dlr.de/xsd/duarouterConfiguration.xsd">

    <input>
        <net-file value="C:\Users\Pedram\Downloads\sumo-1.2.0\tools\2024-06-27-13-40-43\osm.net.xml"/>
        <route-files value="C:\Users\Pedram\Downloads\sumo-1.2.0\tools\2024-06-27-13-40-43\osm.bus.trips.xml"/>
    </input>

    <output>
        <output-file value="C:\Users\Pedram\Downloads\sumo-1.2.0\tools\2024-06-27-13-40-43\osm.bus.trips.xml.tmp"/>
        <write-trips value="true"/>
    </output>

    <time>
        <begin value="0"/>
        <end value="3600.0"/>
    </time>

    <report>
        <no-warnings value="true"/>
        <ignore-errors value="true"/>
        <no-step-log value="true"/>
    </report>

</configuration>
-->

<routes xmlns:xsi="http://www.w3.org/2001/XMLSchema-instance" xsi:noNamespaceSchemaLocation="http://sumo.dlr.de/xsd/routes_file.xsd"/>
