<?xml version="1.0" encoding="UTF-8"?>

<!-- generated on 06/27/24 16:45:26 by Eclipse SUMO netedit Version 1.2.0
<configuration xmlns:xsi="http://www.w3.org/2001/XMLSchema-instance" xsi:noNamespaceSchemaLocation="http://sumo.dlr.de/xsd/netconvertConfiguration.xsd">

    <input>
        <sumo-net-file value="osm.net.xml"/>
    </input>

    <output>
        <output-file value="osm.net.xml"/>
        <output.street-names value="true"/>
    </output>

    <processing>
        <geometry.max-grade.fix value="false"/>
        <offset.disable-normalization value="true"/>
        <lefthand value="false"/>
    </processing>

    <junctions>
        <no-internal-links value="false"/>
        <no-turnarounds value="true"/>
        <junctions.corner-detail value="5"/>
        <junctions.limit-turn-speed value="5.5"/>
        <rectangular-lane-cut value="false"/>
    </junctions>

    <pedestrian>
        <walkingareas value="true"/>
    </pedestrian>

</configuration>
-->

<net version="1.1" junctionCornerDetail="5" walkingareas="true" limitTurnSpeed="5.50" xmlns:xsi="http://www.w3.org/2001/XMLSchema-instance" xsi:noNamespaceSchemaLocation="http://sumo.dlr.de/xsd/net_file.xsd">

    <location netOffset="-320402.22,-4307390.74" convBoundary="0.00,0.00,3700.33,505.73" origBoundary="-77.070987,38.897049,-77.028413,38.901968" projParameter="+proj=utm +zone=18 +ellps=WGS84 +datum=WGS84 +units=m +no_defs"/>

    <type id="highway.bridleway" priority="1" numLanes="1" speed="2.78" allow="pedestrian" oneway="1" width="2.00"/>
    <type id="highway.bus_guideway" priority="1" numLanes="1" speed="13.89" allow="bus" oneway="1"/>
    <type id="highway.cycleway" priority="1" numLanes="1" speed="8.33" allow="bicycle" oneway="0" width="1.00"/>
    <type id="highway.footway" priority="1" numLanes="1" speed="2.78" allow="pedestrian" oneway="1" width="2.00"/>
    <type id="highway.ford" priority="1" numLanes="1" speed="2.78" allow="army" oneway="0"/>
    <type id="highway.living_street" priority="2" numLanes="1" speed="2.78" disallow="tram rail_urban rail rail_electric ship" oneway="0"/>
    <type id="highway.motorway" priority="14" numLanes="2" speed="27.78" allow="private emergency authority army vip passenger hov taxi bus coach delivery truck trailer motorcycle evehicle custom1 custom2" oneway="1"/>
    <type id="highway.motorway_link" priority="9" numLanes="1" speed="16.67" allow="private emergency authority army vip passenger hov taxi bus coach delivery truck trailer motorcycle evehicle custom1 custom2" oneway="1"/>
    <type id="highway.path" priority="1" numLanes="1" speed="2.78" allow="bicycle pedestrian" oneway="1" width="2.00"/>
    <type id="highway.pedestrian" priority="1" numLanes="1" speed="2.78" allow="pedestrian" oneway="1" width="2.00"/>
    <type id="highway.primary" priority="12" numLanes="2" speed="13.89" disallow="tram rail_urban rail rail_electric pedestrian ship" oneway="0" sidewalkWidth="3.00"/>
    <type id="highway.primary_link" priority="7" numLanes="1" speed="13.89" disallow="tram rail_urban rail rail_electric pedestrian ship" oneway="0" sidewalkWidth="3.00"/>
    <type id="highway.raceway" priority="15" numLanes="2" speed="83.33" allow="vip" oneway="0"/>
    <type id="highway.residential" priority="3" numLanes="1" speed="13.89" disallow="tram rail_urban rail rail_electric pedestrian ship" oneway="0" sidewalkWidth="2.00"/>
    <type id="highway.secondary" priority="11" numLanes="2" speed="13.89" disallow="tram rail_urban rail rail_electric pedestrian ship" oneway="0" sidewalkWidth="3.00"/>
    <type id="highway.secondary_link" priority="6" numLanes="1" speed="13.89" disallow="tram rail_urban rail rail_electric pedestrian ship" oneway="0" sidewalkWidth="3.00"/>
    <type id="highway.service" priority="1" numLanes="1" speed="5.56" allow="delivery bicycle pedestrian" oneway="0"/>
    <type id="highway.stairs" priority="1" numLanes="1" speed="1.39" allow="pedestrian" oneway="1" width="2.00"/>
    <type id="highway.step" priority="1" numLanes="1" speed="1.39" allow="pedestrian" oneway="1" width="2.00"/>
    <type id="highway.steps" priority="1" numLanes="1" speed="1.39" allow="pedestrian" oneway="1" width="2.00"/>
    <type id="highway.tertiary" priority="10" numLanes="1" speed="13.89" disallow="tram rail_urban rail rail_electric pedestrian ship" oneway="0" sidewalkWidth="3.00"/>
    <type id="highway.tertiary_link" priority="5" numLanes="1" speed="13.89" disallow="tram rail_urban rail rail_electric pedestrian ship" oneway="0" sidewalkWidth="2.00"/>
    <type id="highway.track" priority="1" numLanes="1" speed="5.56" disallow="tram rail_urban rail rail_electric ship" oneway="0"/>
    <type id="highway.trunk" priority="13" numLanes="2" speed="13.89" disallow="tram rail_urban rail rail_electric bicycle pedestrian ship" oneway="0"/>
    <type id="highway.trunk_link" priority="8" numLanes="1" speed="13.89" disallow="tram rail_urban rail rail_electric bicycle pedestrian ship" oneway="0"/>
    <type id="highway.unclassified" priority="4" numLanes="1" speed="13.89" disallow="tram rail_urban rail rail_electric pedestrian ship" oneway="0" sidewalkWidth="2.00"/>
    <type id="highway.unsurfaced" priority="1" numLanes="1" speed="8.33" disallow="tram rail_urban rail rail_electric ship" oneway="0"/>
    <type id="railway.light_rail" priority="19" numLanes="1" speed="27.78" allow="rail_urban" oneway="1"/>
    <type id="railway.preserved" priority="16" numLanes="1" speed="27.78" allow="rail" oneway="1"/>
    <type id="railway.rail" priority="20" numLanes="1" speed="83.33" allow="rail rail_electric" oneway="1"/>
    <type id="railway.subway" priority="18" numLanes="1" speed="27.78" allow="rail_urban" oneway="1"/>
    <type id="railway.tram" priority="17" numLanes="1" speed="13.89" allow="tram" oneway="1"/>

    <edge id=":10110405838_w0" function="walkingarea">
        <lane id=":10110405838_w0_0" index="0" allow="pedestrian" speed="1.00" length="3.87" width="2.00" shape="1808.51,357.87 1808.45,355.87 1808.20,354.38 1806.20,354.42 1804.26,356.00 1804.32,358.00 1805.31,359.37 1807.20,360.04 1808.01,357.96 1807.70,358.18 1807.54,358.52 1807.44,358.95 1807.35,359.47"/>
    </edge>
    <edge id=":11110834046_w0" function="walkingarea">
        <lane id=":11110834046_w0_0" index="0" allow="pedestrian" speed="1.00" length="3.60" width="2.00" shape="1829.27,378.80 1831.27,378.76 1832.75,377.22 1832.70,375.22 1831.19,374.55 1829.19,374.59"/>
    </edge>
    <edge id=":11110834073_w0" function="walkingarea">
        <lane id=":11110834073_w0_0" index="0" allow="pedestrian" speed="1.00" length="2.03" width="2.00" shape="1828.10,357.25 1827.99,355.25 1825.99,355.33 1826.05,357.33"/>
    </edge>
    <edge id=":11110834076_w0" function="walkingarea">
        <lane id=":11110834076_w0_0" index="0" allow="pedestrian" speed="1.00" length="3.42" width="2.00" shape="1832.16,357.68 1834.15,357.59 1834.90,356.91 1834.84,354.91 1830.22,355.10 1830.37,357.09 1832.07,357.31 1831.88,357.09 1831.60,357.01 1831.24,357.00 1830.83,357.04"/>
    </edge>
    <edge id=":11110834077_w0" function="walkingarea">
        <lane id=":11110834077_w0_0" index="0" allow="pedestrian" speed="1.00" length="3.52" width="2.00" shape="1921.02,351.30 1919.11,350.72 1916.99,352.47 1917.05,354.47 1918.55,354.76 1920.54,354.81 1920.81,352.03 1920.68,352.57 1920.61,353.03 1920.57,353.49 1920.56,354.05"/>
    </edge>
    <edge id=":11110834081_w0" function="walkingarea">
        <lane id=":11110834081_w0_0" index="0" allow="pedestrian" speed="1.00" length="2.43" width="2.00" shape="1830.17,357.10 1830.02,355.11 1829.84,353.62 1827.84,353.66 1828.19,355.24 1828.30,357.24"/>
    </edge>
    <edge id=":2405210964_w0" function="walkingarea">
        <lane id=":2405210964_w0_0" index="0" allow="pedestrian" speed="1.00" length="4.05" width="2.00" shape="1830.79,453.30 1832.79,453.25 1834.25,451.80 1834.32,449.80 1832.68,448.25 1830.68,448.29"/>
    </edge>
    <edge id=":2405210968_w0" function="walkingarea">
        <lane id=":2405210968_w0_0" index="0" allow="pedestrian" speed="1.00" length="2.26" width="2.00" shape="1829.18,374.39 1831.18,374.35 1831.66,372.78 1830.45,371.19 1828.99,371.69 1829.02,373.69 1829.19,374.21 1829.22,374.05 1829.23,373.90 1829.22,373.79 1829.15,373.71"/>
    </edge>
    <edge id=":2405210971_w0" function="walkingarea">
        <lane id=":2405210971_w0_0" index="0" allow="pedestrian" speed="1.00" length="4.18" width="2.00" shape="1885.24,464.35 1884.21,462.63 1881.43,462.00 1880.06,463.45 1879.86,465.26 1880.90,466.97"/>
    </edge>
    <edge id=":2405210975_w0" function="walkingarea">
        <lane id=":2405210975_w0_0" index="0" allow="pedestrian" speed="1.00" length="4.02" width="2.00" shape="1864.40,440.67 1866.40,440.58 1867.83,439.01 1867.73,437.01 1862.97,436.99 1862.83,438.98 1864.35,440.15 1864.23,439.74 1864.03,439.42 1863.74,439.20 1863.35,439.05"/>
    </edge>
    <edge id=":2405210979_w0" function="walkingarea">
        <lane id=":2405210979_w0_0" index="0" allow="pedestrian" speed="1.00" length="4.03" width="2.00" shape="1879.07,412.52 1881.07,412.47 1882.53,410.93 1882.49,408.94 1877.48,409.06 1877.53,411.06 1879.02,412.04 1878.89,411.66 1878.69,411.38 1878.40,411.19 1878.01,411.08"/>
    </edge>
    <edge id=":2457606213_0" function="internal">
        <lane id=":2457606213_0_0" index="0" allow="delivery bicycle pedestrian" speed="3.65" length="4.67" shape="1783.42,486.66 1782.02,486.31 1781.37,485.69 1781.48,484.80 1782.34,483.64"/>
    </edge>
    <edge id=":49741703_0" function="internal">
        <lane id=":49741703_0_0" index="0" disallow="tram rail_urban rail rail_electric pedestrian ship" speed="3.65" length="4.67" shape="2118.88,355.57 2120.10,356.34 2120.52,357.13 2120.14,357.94 2118.96,358.77"/>
    </edge>
    <edge id=":49741703_w0" function="walkingarea">
        <lane id=":49741703_w0_0" index="0" allow="pedestrian" speed="1.00" length="9.40" width="3.00" shape="2118.99,360.37 2119.06,363.37 2118.78,350.97 2118.85,353.97"/>
    </edge>
    <edge id=":49777712_0" function="internal">
        <lane id=":49777712_0_0" index="0" disallow="tram rail_urban rail rail_electric pedestrian ship" speed="3.65" length="4.67" shape="1813.22,240.54 1813.99,239.32 1814.78,238.90 1815.59,239.28 1816.42,240.46"/>
    </edge>
    <edge id=":49777712_w0" function="walkingarea">
        <lane id=":49777712_w0_0" index="0" allow="pedestrian" speed="1.00" length="22.20" width="3.00" shape="1824.42,240.28 1827.42,240.22 1802.22,240.78 1805.22,240.72"/>
    </edge>
    <edge id=":4979588907_0" function="internal">
        <lane id=":4979588907_0_0" index="0" disallow="tram rail_urban rail rail_electric pedestrian ship" speed="13.89" length="5.16" shape="1922.25,363.07 1917.09,363.21"/>
    </edge>
    <edge id=":4979588907_1" function="internal">
        <lane id=":4979588907_1_0" index="0" disallow="tram rail_urban rail rail_electric pedestrian ship" speed="3.65" length="2.34" shape="1922.25,363.07 1921.03,362.31 1920.61,361.52"/>
    </edge>
    <edge id=":4979588907_4" function="internal">
        <lane id=":4979588907_4_0" index="0" disallow="tram rail_urban rail rail_electric pedestrian ship" speed="3.65" length="2.34" shape="1920.61,361.52 1920.98,360.71 1922.16,359.87"/>
    </edge>
    <edge id=":4979588907_2" function="internal">
        <lane id=":4979588907_2_0" index="0" disallow="tram rail_urban rail rail_electric pedestrian ship" speed="13.89" length="5.16" shape="1917.00,360.02 1922.16,359.87"/>
    </edge>
    <edge id=":4979588907_3" function="internal">
        <lane id=":4979588907_3_0" index="0" disallow="tram rail_urban rail rail_electric pedestrian ship" speed="3.65" length="2.34" shape="1917.00,360.02 1918.22,360.78 1918.64,361.57"/>
    </edge>
    <edge id=":4979588907_5" function="internal">
        <lane id=":4979588907_5_0" index="0" disallow="tram rail_urban rail rail_electric pedestrian ship" speed="3.65" length="2.34" shape="1918.64,361.57 1918.27,362.38 1917.09,363.21"/>
    </edge>
    <edge id=":4979588907_c0" function="crossing" crossingEdges="-50799230#2 50799230#0">
        <lane id=":4979588907_c0_0" index="0" allow="pedestrian" speed="1.00" length="6.40" width="4.00" shape="1920.12,358.33 1920.30,364.73"/>
    </edge>
    <edge id=":4979588907_w0" function="walkingarea">
        <lane id=":4979588907_w0_0" index="0" allow="pedestrian" speed="1.00" length="3.90" width="4.00" shape="1917.13,364.81 1917.21,367.81 1919.38,369.62 1921.14,368.66 1922.38,367.67 1922.29,364.67 1918.30,364.78"/>
    </edge>
    <edge id=":4979588907_w1" function="walkingarea">
        <lane id=":4979588907_w1_0" index="0" allow="pedestrian" speed="1.00" length="3.48" width="4.00" shape="1918.12,358.39 1922.12,358.27 1922.03,355.27 1920.54,355.01 1918.54,354.96 1916.87,355.42 1916.96,358.42"/>
    </edge>
    <edge id=":6534061683_w0" function="walkingarea">
        <lane id=":6534061683_w0_0" index="0" allow="pedestrian" speed="1.00" length="4.16" width="2.00" shape="1886.61,375.85 1888.61,375.82 1890.07,373.90 1890.01,371.90 1884.55,372.90 1885.15,374.81 1886.55,375.44 1886.41,375.12 1886.19,374.89 1885.91,374.76 1885.56,374.73"/>
    </edge>
    <edge id=":806521028_0" function="internal">
        <lane id=":806521028_0_0" index="0" disallow="tram rail_urban rail rail_electric pedestrian ship" speed="3.65" length="4.67" shape="1823.57,495.44 1822.80,496.66 1822.01,497.08 1821.20,496.70 1820.37,495.52"/>
    </edge>
    <edge id=":806521028_w0" function="walkingarea">
        <lane id=":806521028_w0_0" index="0" allow="pedestrian" speed="1.00" length="15.80" width="3.00" shape="1815.57,495.62 1812.57,495.69 1831.37,495.27 1828.37,495.34"/>
    </edge>
    <edge id=":9530937566_w0" function="walkingarea">
        <lane id=":9530937566_w0_0" index="0" allow="pedestrian" speed="1.00" length="4.11" width="2.00" shape="1806.85,374.24 1806.78,372.24 1805.40,370.80 1803.41,370.63 1801.80,371.93 1801.48,373.90 1803.07,375.69 1805.07,375.80 1806.31,374.29 1805.87,374.40 1805.54,374.59 1805.29,374.88 1805.14,375.27"/>
    </edge>
    <edge id=":cluster_10259336199_11110834038_0" function="internal">
        <lane id=":cluster_10259336199_11110834038_0_0" index="0" disallow="tram rail_urban rail rail_electric pedestrian ship" speed="13.89" length="6.23" shape="1815.12,419.11 1814.95,412.89"/>
        <lane id=":cluster_10259336199_11110834038_0_1" index="1" disallow="tram rail_urban rail rail_electric pedestrian ship" speed="13.89" length="6.23" shape="1818.32,419.03 1818.15,412.79"/>
    </edge>
    <edge id=":cluster_10259336199_11110834038_2" function="internal">
        <lane id=":cluster_10259336199_11110834038_2_0" index="0" disallow="tram rail_urban rail rail_electric pedestrian ship" speed="3.65" length="2.34" shape="1818.32,419.03 1819.08,417.80 1819.87,417.38"/>
    </edge>
    <edge id=":cluster_10259336199_11110834038_8" function="internal">
        <lane id=":cluster_10259336199_11110834038_8_0" index="0" disallow="tram rail_urban rail rail_electric pedestrian ship" speed="3.65" length="2.34" shape="1819.87,417.38 1820.68,417.76 1821.52,418.94"/>
    </edge>
    <edge id=":cluster_10259336199_11110834038_3" function="internal">
        <lane id=":cluster_10259336199_11110834038_3_0" index="0" disallow="tram rail_urban rail rail_electric pedestrian ship" speed="13.89" length="6.25" shape="1824.55,412.60 1824.71,418.85"/>
        <lane id=":cluster_10259336199_11110834038_3_1" index="1" disallow="tram rail_urban rail rail_electric pedestrian ship" speed="13.89" length="6.25" shape="1821.35,412.70 1821.52,418.94"/>
    </edge>
    <edge id=":cluster_10259336199_11110834038_5" function="internal">
        <lane id=":cluster_10259336199_11110834038_5_0" index="0" disallow="tram rail_urban rail rail_electric pedestrian ship" speed="3.65" length="2.34" shape="1821.35,412.70 1820.58,413.92 1819.80,414.35"/>
    </edge>
    <edge id=":cluster_10259336199_11110834038_9" function="internal">
        <lane id=":cluster_10259336199_11110834038_9_0" index="0" disallow="tram rail_urban rail rail_electric pedestrian ship" speed="3.65" length="2.34" shape="1819.80,414.35 1818.98,413.97 1818.15,412.79"/>
    </edge>
    <edge id=":cluster_10259336199_11110834038_6" function="internal">
        <lane id=":cluster_10259336199_11110834038_6_0" index="0" disallow="tram rail_urban rail rail_electric pedestrian ship" speed="7.09" length="10.87" shape="1805.34,416.28 1809.58,415.95 1812.59,415.27 1814.38,414.25 1814.95,412.89"/>
    </edge>
    <edge id=":cluster_10259336199_11110834038_7" function="internal">
        <lane id=":cluster_10259336199_11110834038_7_0" index="0" disallow="tram rail_urban rail rail_electric pedestrian ship" speed="8.69" length="16.99" shape="1805.34,416.28 1812.39,416.25 1817.43,416.68 1820.47,417.57 1821.52,418.94"/>
    </edge>
    <edge id=":cluster_10259336199_11110834038_c0" function="crossing" crossingEdges="-130285156#1 130285156#1">
        <lane id=":cluster_10259336199_11110834038_c0_0" index="0" allow="pedestrian" speed="1.00" length="12.80" width="4.00" shape="1826.26,416.81 1813.46,417.16"/>
    </edge>
    <edge id=":cluster_10259336199_11110834038_w0" function="walkingarea">
        <lane id=":cluster_10259336199_11110834038_w0_0" index="0" allow="pedestrian" speed="1.00" length="5.74" width="4.00" shape="1813.35,412.94 1810.35,413.02 1808.76,413.08 1806.76,413.14 1805.29,414.69 1805.40,417.88 1806.94,419.33 1808.94,419.28 1810.52,419.24 1813.52,419.16 1813.41,415.16"/>
    </edge>
    <edge id=":cluster_10259336199_11110834038_w1" function="walkingarea">
        <lane id=":cluster_10259336199_11110834038_w1_0" index="0" allow="pedestrian" speed="1.00" length="4.43" width="4.00" shape="1826.21,414.81 1826.31,418.81 1829.31,418.73 1829.14,412.47 1826.15,412.55"/>
    </edge>
    <edge id=":cluster_10259336200_11110834039_0" function="internal">
        <lane id=":cluster_10259336200_11110834039_0_0" index="0" allow="delivery bicycle pedestrian" speed="7.06" length="10.81" shape="1815.93,449.39 1815.29,448.06 1813.46,447.14 1810.44,446.62 1806.23,446.53"/>
    </edge>
    <edge id=":cluster_10259336200_11110834039_1" function="internal">
        <lane id=":cluster_10259336200_11110834039_1_0" index="0" disallow="tram rail_urban rail rail_electric pedestrian ship" speed="13.89" length="6.25" shape="1815.93,449.39 1815.77,443.16"/>
        <lane id=":cluster_10259336200_11110834039_1_1" index="1" disallow="tram rail_urban rail rail_electric pedestrian ship" speed="13.89" length="6.25" shape="1819.13,449.32 1818.96,443.06"/>
    </edge>
    <edge id=":cluster_10259336200_11110834039_3" function="internal">
        <lane id=":cluster_10259336200_11110834039_3_0" index="0" disallow="tram rail_urban rail rail_electric pedestrian ship" speed="3.65" length="2.34" shape="1819.13,449.32 1819.90,448.10 1820.69,447.68"/>
    </edge>
    <edge id=":cluster_10259336200_11110834039_8" function="internal">
        <lane id=":cluster_10259336200_11110834039_8_0" index="0" disallow="tram rail_urban rail rail_electric pedestrian ship" speed="3.65" length="2.34" shape="1820.69,447.68 1821.50,448.06 1822.32,449.24"/>
    </edge>
    <edge id=":cluster_10259336200_11110834039_4" function="internal">
        <lane id=":cluster_10259336200_11110834039_4_0" index="0" disallow="tram rail_urban rail rail_electric pedestrian ship" speed="13.89" length="6.28" shape="1825.36,442.87 1825.52,449.16"/>
        <lane id=":cluster_10259336200_11110834039_4_1" index="1" disallow="tram rail_urban rail rail_electric pedestrian ship" speed="13.89" length="6.28" shape="1822.16,442.97 1822.32,449.24"/>
    </edge>
    <edge id=":cluster_10259336200_11110834039_6" function="internal">
        <lane id=":cluster_10259336200_11110834039_6_0" index="0" allow="delivery bicycle pedestrian" speed="8.68" length="2.35" shape="1822.16,442.97 1821.20,444.39 1820.61,444.60"/>
    </edge>
    <edge id=":cluster_10259336200_11110834039_7" function="internal">
        <lane id=":cluster_10259336200_11110834039_7_0" index="0" disallow="tram rail_urban rail rail_electric pedestrian ship" speed="3.65" length="2.34" shape="1822.16,442.97 1821.40,444.19 1820.61,444.61"/>
    </edge>
    <edge id=":cluster_10259336200_11110834039_9" function="internal">
        <lane id=":cluster_10259336200_11110834039_9_0" index="0" allow="delivery bicycle pedestrian" speed="8.68" length="14.58" shape="1820.61,444.60 1818.22,445.46 1813.23,446.17 1806.23,446.53"/>
    </edge>
    <edge id=":cluster_10259336200_11110834039_10" function="internal">
        <lane id=":cluster_10259336200_11110834039_10_0" index="0" disallow="tram rail_urban rail rail_electric pedestrian ship" speed="3.65" length="2.34" shape="1820.61,444.61 1819.80,444.24 1818.96,443.06"/>
    </edge>
    <edge id=":cluster_10259336200_11110834039_c0" function="crossing" crossingEdges="-130285156#0 1120094388#1">
        <lane id=":cluster_10259336200_11110834039_c0_0" index="0" allow="pedestrian" speed="1.00" length="12.80" width="4.00" shape="1827.07,447.12 1814.28,447.43"/>
    </edge>
    <edge id=":cluster_10259336200_11110834039_w0" function="walkingarea">
        <lane id=":cluster_10259336200_11110834039_w0_0" index="0" allow="pedestrian" speed="1.00" length="5.70" width="4.00" shape="1814.17,443.21 1811.17,443.29 1809.65,443.33 1807.65,443.39 1806.19,444.93 1806.27,448.13 1807.83,449.60 1809.83,449.54 1811.33,449.51 1814.33,449.43 1814.23,445.43"/>
    </edge>
    <edge id=":cluster_10259336200_11110834039_w1" function="walkingarea">
        <lane id=":cluster_10259336200_11110834039_w1_0" index="0" allow="pedestrian" speed="1.00" length="4.45" width="4.00" shape="1827.03,445.12 1827.12,449.12 1830.12,449.05 1829.96,442.74 1826.96,442.82"/>
    </edge>
    <edge id=":cluster_11110834036_2457606215_0" function="internal">
        <lane id=":cluster_11110834036_2457606215_0_0" index="0" allow="delivery bicycle pedestrian" speed="7.18" length="10.83" shape="1816.86,481.65 1816.23,480.42 1814.38,479.52 1811.32,478.93 1807.05,478.67"/>
    </edge>
    <edge id=":cluster_11110834036_2457606215_1" function="internal">
        <lane id=":cluster_11110834036_2457606215_1_0" index="0" disallow="tram rail_urban rail rail_electric pedestrian ship" speed="13.89" length="10.45" shape="1816.86,481.65 1816.59,471.37"/>
        <lane id=":cluster_11110834036_2457606215_1_1" index="1" disallow="tram rail_urban rail rail_electric pedestrian ship" speed="13.89" length="10.45" shape="1820.06,481.58 1819.77,470.96"/>
    </edge>
    <edge id=":cluster_11110834036_2457606215_3" function="internal">
        <lane id=":cluster_11110834036_2457606215_3_0" index="0" disallow="tram rail_urban rail rail_electric pedestrian ship" speed="3.65" length="2.34" shape="1820.06,481.58 1820.84,480.36 1821.63,479.94"/>
    </edge>
    <edge id=":cluster_11110834036_2457606215_11" function="internal">
        <lane id=":cluster_11110834036_2457606215_11_0" index="0" disallow="tram rail_urban rail rail_electric pedestrian ship" speed="3.65" length="2.34" shape="1821.63,479.94 1822.44,480.33 1823.26,481.51"/>
    </edge>
    <edge id=":cluster_11110834036_2457606215_4" function="internal">
        <lane id=":cluster_11110834036_2457606215_4_0" index="0" disallow="tram rail_urban rail rail_electric pedestrian ship" speed="13.89" length="11.14" shape="1826.15,470.14 1826.46,481.44"/>
        <lane id=":cluster_11110834036_2457606215_4_1" index="1" disallow="tram rail_urban rail rail_electric pedestrian ship" speed="13.89" length="11.14" shape="1822.96,470.55 1823.26,481.51"/>
    </edge>
    <edge id=":cluster_11110834036_2457606215_6" function="internal">
        <lane id=":cluster_11110834036_2457606215_6_0" index="0" allow="delivery bicycle pedestrian" speed="9.23" length="4.57" shape="1822.96,470.55 1822.07,474.23 1821.48,474.74"/>
    </edge>
    <edge id=":cluster_11110834036_2457606215_7" function="internal">
        <lane id=":cluster_11110834036_2457606215_7_0" index="0" disallow="tram rail_urban rail rail_electric pedestrian ship" speed="3.66" length="2.52" shape="1822.96,470.55 1822.32,471.85 1821.57,472.35 1821.41,472.29"/>
    </edge>
    <edge id=":cluster_11110834036_2457606215_12" function="internal">
        <lane id=":cluster_11110834036_2457606215_12_0" index="0" allow="delivery bicycle pedestrian" speed="9.23" length="15.43" shape="1821.48,474.74 1819.11,476.81 1814.11,478.29 1807.05,478.67"/>
    </edge>
    <edge id=":cluster_11110834036_2457606215_13" function="internal">
        <lane id=":cluster_11110834036_2457606215_13_0" index="0" disallow="tram rail_urban rail rail_electric pedestrian ship" speed="3.66" length="2.18" shape="1821.41,472.29 1820.73,472.05 1819.77,470.96"/>
    </edge>
    <edge id=":cluster_11110834036_2457606215_8" function="internal">
        <lane id=":cluster_11110834036_2457606215_8_0" index="0" disallow="tram rail_urban rail rail_electric pedestrian ship" speed="7.10" length="11.40" shape="1807.12,475.47 1811.31,475.29 1814.28,474.54 1816.04,473.24 1816.59,471.37"/>
    </edge>
    <edge id=":cluster_11110834036_2457606215_9" function="internal">
        <lane id=":cluster_11110834036_2457606215_9_0" index="0" disallow="tram rail_urban rail rail_electric pedestrian ship" speed="9.21" length="18.48" shape="1807.12,475.47 1814.13,475.97 1819.16,477.15 1822.21,478.99 1823.26,481.51"/>
    </edge>
    <edge id=":cluster_11110834036_2457606215_10" function="internal">
        <lane id=":cluster_11110834036_2457606215_10_0" index="0" allow="delivery bicycle pedestrian" speed="3.65" length="4.67" shape="1807.12,475.47 1808.30,476.29 1808.68,477.10 1808.27,477.89 1807.05,478.67"/>
    </edge>
    <edge id=":cluster_11110834036_2457606215_c0" function="crossing" crossingEdges="-1120094388#0 1120094388#0">
        <lane id=":cluster_11110834036_2457606215_c0_0" index="0" allow="pedestrian" speed="1.00" length="12.80" width="4.00" shape="1828.02,479.40 1815.22,479.68"/>
    </edge>
    <edge id=":cluster_11110834036_2457606215_w0" function="walkingarea">
        <lane id=":cluster_11110834036_2457606215_w0_0" index="0" allow="pedestrian" speed="1.00" length="7.12" width="4.00" shape="1815.00,471.72 1812.00,471.81 1810.50,472.25 1808.50,472.31 1807.15,473.87 1807.08,477.07 1807.08,477.07 1807.02,480.26 1809.28,481.64 1811.26,481.94 1812.26,481.75 1815.26,481.68 1815.18,477.68"/>
    </edge>
    <edge id=":cluster_11110834036_2457606215_w1" function="walkingarea">
        <lane id=":cluster_11110834036_2457606215_w1_0" index="0" allow="pedestrian" speed="1.00" length="7.96" width="4.00" shape="1827.97,477.40 1828.06,481.40 1831.06,481.34 1830.74,469.69 1827.74,469.78"/>
    </edge>
    <edge id=":cluster_49793670_9123357154_9123357155_9428447085_0" function="internal">
        <lane id=":cluster_49793670_9123357154_9123357155_9428447085_0_0" index="0" disallow="tram rail_urban rail rail_electric pedestrian ship" speed="13.89" length="20.79" shape="1813.96,375.57 1813.24,369.50 1811.90,365.43 1810.56,361.37 1809.84,355.29"/>
        <lane id=":cluster_49793670_9123357154_9123357155_9428447085_0_1" index="1" disallow="tram rail_urban rail rail_electric pedestrian ship" speed="13.89" length="20.79" shape="1817.16,375.49 1816.44,369.41 1815.10,365.35 1813.76,361.29 1813.04,355.21"/>
    </edge>
    <edge id=":cluster_49793670_9123357154_9123357155_9428447085_2" function="internal">
        <lane id=":cluster_49793670_9123357154_9123357155_9428447085_2_0" index="0" disallow="tram rail_urban rail rail_electric pedestrian ship" speed="10.65" length="7.08" shape="1817.16,375.49 1818.21,369.88 1819.10,368.84"/>
    </edge>
    <edge id=":cluster_49793670_9123357154_9123357155_9428447085_3" function="internal">
        <lane id=":cluster_49793670_9123357154_9123357155_9428447085_3_0" index="0" disallow="tram rail_urban rail rail_electric pedestrian ship" speed="3.65" length="4.67" shape="1817.16,375.49 1817.93,374.27 1818.71,373.85 1819.52,374.23 1820.36,375.40"/>
    </edge>
    <edge id=":cluster_49793670_9123357154_9123357155_9428447085_12" function="internal">
        <lane id=":cluster_49793670_9123357154_9123357155_9428447085_12_0" index="0" disallow="tram rail_urban rail rail_electric pedestrian ship" speed="10.65" length="18.87" shape="1819.10,368.84 1821.69,365.81 1827.62,363.25 1835.98,362.23"/>
    </edge>
    <edge id=":cluster_49793670_9123357154_9123357155_9428447085_4" function="internal">
        <lane id=":cluster_49793670_9123357154_9123357155_9428447085_4_0" index="0" disallow="tram rail_urban rail rail_electric pedestrian ship" speed="8.97" length="14.00" shape="1836.07,365.43 1830.50,366.18 1826.56,368.08 1824.24,371.12 1824.21,371.30"/>
    </edge>
    <edge id=":cluster_49793670_9123357154_9123357155_9428447085_5" function="internal">
        <lane id=":cluster_49793670_9123357154_9123357155_9428447085_5_0" index="0" disallow="tram rail_urban rail rail_electric pedestrian ship" speed="11.00" length="23.59" shape="1836.07,365.43 1826.10,365.02 1818.94,363.18 1814.59,359.91 1814.35,359.18"/>
    </edge>
    <edge id=":cluster_49793670_9123357154_9123357155_9428447085_6" function="internal">
        <lane id=":cluster_49793670_9123357154_9123357155_9428447085_6_0" index="0" disallow="tram rail_urban rail rail_electric pedestrian ship" speed="10.44" length="20.77" shape="1836.07,365.43 1827.50,364.98 1821.34,363.12 1817.59,359.83 1817.38,359.09"/>
    </edge>
    <edge id=":cluster_49793670_9123357154_9123357155_9428447085_7" function="internal">