<?xml version="1.0" ?>
<routes>
   <vType id="ped_pedestrian" vClass="pedestrian"/>
   <person depart="0.0" id="pedestrian1_406" type="ped_pedestrian">
      <walk edges="1034625746#0 1034625746#1 1197548851#1 232149477#1"/>
   </person>
   <person depart="0.0" id="pedestrian3_566" type="ped_pedestrian">
      <walk edges="1104847359 1197548865#1 1197548868#2 1197548868#1 1197548868#0"/>
   </person>
   <person depart="0.0" id="pedestrian4_726" type="ped_pedestrian">
      <walk edges="-50799230#3 1197548865#1 1104847359"/>
   </person>
   <person depart="0.0" id="pedestrian6_876" type="ped_pedestrian">
      <walk edges="1197548845#3 1120094388#1 -130285156#1 -130285156#2 1197548868#2"/>
   </person>
   <person depart="0.0" id="pedestrian5_889" type="ped_pedestrian">
      <walk edges="1197548868#2 1197548851#1 232149477#1 232149477#0 232149476#2"/>
   </person>
   <person depart="0.0" id="pedestrian2_1152" type="ped_pedestrian">
      <walk edges="1197548851#1 1197548865#1 1104847359"/>
   </person>
   <person depart="7.422680412371134" id="pedestrian2_879" type="ped_pedestrian">
      <walk edges="1197548851#1 1197548865#1 1104847359"/>
   </person>
   <person depart="11.285266457680251" id="pedestrian1_1473" type="ped_pedestrian">
      <walk edges="1034625746#0 1034625746#1 1197548851#1 232149477#1"/>
   </person>
   <person depart="14.845360824742269" id="pedestrian2_149" type="ped_pedestrian">
      <walk edges="1197548851#1 1197548865#1 1104847359"/>
   </person>
   <person depart="15.652173913043478" id="pedestrian4_461" type="ped_pedestrian">
      <walk edges="-50799230#3 1197548865#1 1104847359"/>
   </person>
   <person depart="16.74418604651163" id="pedestrian3_1235" type="ped_pedestrian">
      <walk edges="1104847359 1197548865#1 1197548868#2 1197548868#1 1197548868#0"/>
   </person>
   <person depart="22.085889570552148" id="pedestrian5_1447" type="ped_pedestrian">
      <walk edges="1197548868#2 1197548851#1 232149477#1 232149477#0 232149476#2"/>
   </person>
   <person depart="22.2680412371134" id="pedestrian2_868" type="ped_pedestrian">
      <walk edges="1197548851#1 1197548865#1 1104847359"/>
   </person>
   <person depart="22.570532915360502" id="pedestrian1_126" type="ped_pedestrian">
      <walk edges="1034625746#0 1034625746#1 1197548851#1 232149477#1"/>
   </person>
   <person depart="29.690721649484537" id="pedestrian2_634" type="ped_pedestrian">
      <walk edges="1197548851#1 1197548865#1 1104847359"/>
   </person>
   <person depart="31.304347826086957" id="pedestrian4_1185" type="ped_pedestrian">
      <walk edges="-50799230#3 1197548865#1 1104847359"/>
   </person>
   <person depart="33.48837209302326" id="pedestrian3_342" type="ped_pedestrian">
      <walk edges="1104847359 1197548865#1 1197548868#2 1197548868#1 1197548868#0"/>
   </person>
   <person depart="33.85579937304075" id="pedestrian1_372" type="ped_pedestrian">
      <walk edges="1034625746#0 1034625746#1 1197548851#1 232149477#1"/>
   </person>
   <person depart="37.11340206185567" id="pedestrian2_840" type="ped_pedestrian">
      <walk edges="1197548851#1 1197548865#1 1104847359"/>
   </person>
   <person depart="44.171779141104295" id="pedestrian5_100" type="ped_pedestrian">
      <walk edges="1197548868#2 1197548851#1 232149477#1 232149477#0 232149476#2"/>
   </person>
   <person depart="44.5360824742268" id="pedestrian2_232" type="ped_pedestrian">
      <walk edges="1197548851#1 1197548865#1 1104847359"/>
   </person>
   <person depart="45.141065830721004" id="pedestrian1_741" type="ped_pedestrian">
      <walk edges="1034625746#0 1034625746#1 1197548851#1 232149477#1"/>
   </person>
   <person depart="46.95652173913044" id="pedestrian4_691" type="ped_pedestrian">
      <walk edges="-50799230#3 1197548865#1 1104847359"/>
   </person>
   <person depart="50.23255813953489" id="pedestrian3_1131" type="ped_pedestrian">
      <walk edges="1104847359 1197548865#1 1197548868#2 1197548868#1 1197548868#0"/>
   </person>
   <person depart="51.95876288659794" id="pedestrian2_577" type="ped_pedestrian">
      <walk edges="1197548851#1 1197548865#1 1104847359"/>
   </person>
   <person depart="52.17391304347826" id="pedestrian6_771" type="ped_pedestrian">
      <walk edges="1197548845#3 1120094388#1 -130285156#1 -130285156#2 1197548868#2"/>
   </person>
   <person depart="56.426332288401255" id="pedestrian1_1325" type="ped_pedestrian">
      <walk edges="1034625746#0 1034625746#1 1197548851#1 232149477#1"/>
   </person>
   <person depart="59.381443298969074" id="pedestrian2_1124" type="ped_pedestrian">
      <walk edges="1197548851#1 1197548865#1 1104847359"/>
   </person>
   <person depart="62.608695652173914" id="pedestrian4_137" type="ped_pedestrian">
      <walk edges="-50799230#3 1197548865#1 1104847359"/>
   </person>
   <person depart="66.25766871165644" id="pedestrian5_993" type="ped_pedestrian">
      <walk edges="1197548868#2 1197548851#1 232149477#1 232149477#0 232149476#2"/>
   </person>
   <person depart="66.80412371134021" id="pedestrian2_758" type="ped_pedestrian">
      <walk edges="1197548851#1 1197548865#1 1104847359"/>
   </person>
   <person depart="66.97674418604652" id="pedestrian3_1254" type="ped_pedestrian">
      <walk edges="1104847359 1197548865#1 1197548868#2 1197548868#1 1197548868#0"/>
   </person>
   <person depart="67.7115987460815" id="pedestrian1_1468" type="ped_pedestrian">
      <walk edges="1034625746#0 1034625746#1 1197548851#1 232149477#1"/>
   </person>
   <person depart="74.22680412371135" id="pedestrian2_670" type="ped_pedestrian">
      <walk edges="1197548851#1 1197548865#1 1104847359"/>
   </person>
   <person depart="78.26086956521739" id="pedestrian4_1013" type="ped_pedestrian">
      <walk edges="-50799230#3 1197548865#1 1104847359"/>
   </person>
   <person depart="78.99686520376176" id="pedestrian1_1333" type="ped_pedestrian">
      <walk edges="1034625746#0 1034625746#1 1197548851#1 232149477#1"/>
   </person>
   <person depart="81.64948453608248" id="pedestrian2_303" type="ped_pedestrian">
      <walk edges="1197548851#1 1197548865#1 1104847359"/>
   </person>
   <person depart="83.72093023255815" id="pedestrian3_1037" type="ped_pedestrian">
      <walk edges="1104847359 1197548865#1 1197548868#2 1197548868#1 1197548868#0"/>
   </person>
   <person depart="88.34355828220859" id="pedestrian5_738" type="ped_pedestrian">
      <walk edges="1197548868#2 1197548851#1 232149477#1 232149477#0 232149476#2"/>
   </person>
   <person depart="89.0721649484536" id="pedestrian2_632" type="ped_pedestrian">
      <walk edges="1197548851#1 1197548865#1 1104847359"/>
   </person>
   <person depart="90.28213166144201" id="pedestrian1_411" type="ped_pedestrian">
      <walk edges="1034625746#0 1034625746#1 1197548851#1 232149477#1"/>
   </person>
   <person depart="93.91304347826087" id="pedestrian4_436" type="ped_pedestrian">
      <walk edges="-50799230#3 1197548865#1 1104847359"/>
   </person>
   <person depart="96.49484536082474" id="pedestrian2_1423" type="ped_pedestrian">
      <walk edges="1197548851#1 1197548865#1 1104847359"/>
   </person>
   <person depart="100.46511627906978" id="pedestrian3_426" type="ped_pedestrian">
      <walk edges="1104847359 1197548865#1 1197548868#2 1197548868#1 1197548868#0"/>
   </person>
   <person depart="101.56739811912226" id="pedestrian1_1156" type="ped_pedestrian">
      <walk edges="1034625746#0 1034625746#1 1197548851#1 232149477#1"/>
   </person>
   <person depart="103.91752577319588" id="pedestrian2_1138" type="ped_pedestrian">
      <walk edges="1197548851#1 1197548865#1 1104847359"/>
   </person>
   <person depart="104.34782608695652" id="pedestrian6_530" type="ped_pedestrian">
      <walk edges="1197548845#3 1120094388#1 -130285156#1 -130285156#2 1197548868#2"/>
   </person>
   <person depart="109.56521739130434" id="pedestrian4_629" type="ped_pedestrian">
      <walk edges="-50799230#3 1197548865#1 1104847359"/>
   </person>
   <person depart="110.42944785276075" id="pedestrian5_728" type="ped_pedestrian">
      <walk edges="1197548868#2 1197548851#1 232149477#1 232149477#0 232149476#2"/>
   </person>
   <person depart="111.34020618556701" id="pedestrian2_1256" type="ped_pedestrian">
      <walk edges="1197548851#1 1197548865#1 1104847359"/>
   </person>
   <person depart="112.85266457680251" id="pedestrian1_875" type="ped_pedestrian">
      <walk edges="1034625746#0 1034625746#1 1197548851#1 232149477#1"/>
   </person>
   <person depart="117.2093023255814" id="pedestrian3_150" type="ped_pedestrian">
      <walk edges="1104847359 1197548865#1 1197548868#2 1197548868#1 1197548868#0"/>
   </person>
   <person depart="118.76288659793815" id="pedestrian2_1341" type="ped_pedestrian">
      <walk edges="1197548851#1 1197548865#1 1104847359"/>
   </person>
   <person depart="124.13793103448276" id="pedestrian1_848" type="ped_pedestrian">
      <walk edges="1034625746#0 1034625746#1 1197548851#1 232149477#1"/>
   </person>
   <person depart="125.21739130434783" id="pedestrian4_1251" type="ped_pedestrian">
      <walk edges="-50799230#3 1197548865#1 1104847359"/>
   </person>
   <person depart="126.18556701030928" id="pedestrian2_452" type="ped_pedestrian">
      <walk edges="1197548851#1 1197548865#1 1104847359"/>
   </person>
   <person depart="132.51533742331287" id="pedestrian5_170" type="ped_pedestrian">
      <walk edges="1197548868#2 1197548851#1 232149477#1 232149477#0 232149476#2"/>
   </person>
   <person depart="133.60824742268042" id="pedestrian2_392" type="ped_pedestrian">
      <walk edges="1197548851#1 1197548865#1 1104847359"/>
   </person>
   <person depart="133.95348837209303" id="pedestrian3_645" type="ped_pedestrian">
      <walk edges="1104847359 1197548865#1 1197548868#2 1197548868#1 1197548868#0"/>
   </person>
   <person depart="135.423197492163" id="pedestrian1_591" type="ped_pedestrian">
      <walk edges="1034625746#0 1034625746#1 1197548851#1 232149477#1"/>
   </person>
   <person depart="140.8695652173913" id="pedestrian4_519" type="ped_pedestrian">
      <walk edges="-50799230#3 1197548865#1 1104847359"/>
   </person>
   <person depart="141.03092783505156" id="pedestrian2_1343" type="ped_pedestrian">
      <walk edges="1197548851#1 1197548865#1 1104847359"/>
   </person>
   <person depart="146.70846394984326" id="pedestrian1_676" type="ped_pedestrian">
      <walk edges="1034625746#0 1034625746#1 1197548851#1 232149477#1"/>
   </person>
   <person depart="148.4536082474227" id="pedestrian2_172" type="ped_pedestrian">
      <walk edges="1197548851#1 1197548865#1 1104847359"/>
   </person>
   <person depart="150.69767441860466" id="pedestrian3_813" type="ped_pedestrian">
      <walk edges="1104847359 1197548865#1 1197548868#2 1197548868#1 1197548868#0"/>
   </person>
   <person depart="154.60122699386503" id="pedestrian5_518" type="ped_pedestrian">
      <walk edges="1197548868#2 1197548851#1 232149477#1 232149477#0 232149476#2"/>
   </person>
   <person depart="155.87628865979383" id="pedestrian2_785" type="ped_pedestrian">
      <walk edges="1197548851#1 1197548865#1 1104847359"/>
   </person>
   <person depart="156.52173913043478" id="pedestrian6_800" type="ped_pedestrian">
      <walk edges="1197548845#3 1120094388#1 -130285156#1 -130285156#2 1197548868#2"/>
   </person>
   <person depart="156.52173913043478" id="pedestrian4_1059" type="ped_pedestrian">
      <walk edges="-50799230#3 1197548865#1 1104847359"/>
   </person>
   <person depart="157.99373040752351" id="pedestrian1_282" type="ped_pedestrian">
      <walk edges="1034625746#0 1034625746#1 1197548851#1 232149477#1"/>
   </person>
   <person depart="163.29896907216497" id="pedestrian2_642" type="ped_pedestrian">
      <walk edges="1197548851#1 1197548865#1 1104847359"/>
   </person>
   <person depart="167.4418604651163" id="pedestrian3_881" type="ped_pedestrian">
      <walk edges="1104847359 1197548865#1 1197548868#2 1197548868#1 1197548868#0"/>
   </person>
   <person depart="169.27899686520377" id="pedestrian1_96" type="ped_pedestrian">
      <walk edges="1034625746#0 1034625746#1 1197548851#1 232149477#1"/>
   </person>
   <person depart="170.7216494845361" id="pedestrian2_1243" type="ped_pedestrian">
      <walk edges="1197548851#1 1197548865#1 1104847359"/>
   </person>
   <person depart="172.17391304347825" id="pedestrian4_1401" type="ped_pedestrian">
      <walk edges="-50799230#3 1197548865#1 1104847359"/>
   </person>
   <person depart="176.68711656441718" id="pedestrian5_831" type="ped_pedestrian">
      <walk edges="1197548868#2 1197548851#1 232149477#1 232149477#0 232149476#2"/>
   </person>
   <person depart="178.1443298969072" id="pedestrian2_36" type="ped_pedestrian">
      <walk edges="1197548851#1 1197548865#1 1104847359"/>
   </person>
   <person depart="180.56426332288402" id="pedestrian1_1078" type="ped_pedestrian">
      <walk edges="1034625746#0 1034625746#1 1197548851#1 232149477#1"/>
   </person>
   <person depart="184.18604651162792" id="pedestrian3_606" type="ped_pedestrian">
      <walk edges="1104847359 1197548865#1 1197548868#2 1197548868#1 1197548868#0"/>
   </person>
   <person depart="185.56701030927834" id="pedestrian2_1386" type="ped_pedestrian">
      <walk edges="1197548851#1 1197548865#1 1104847359"/>
   </person>
   <person depart="187.82608695652175" id="pedestrian4_849" type="ped_pedestrian">
      <walk edges="-50799230#3 1197548865#1 1104847359"/>
   </person>
   <person depart="191.84952978056427" id="pedestrian1_454" type="ped_pedestrian">
      <walk edges="1034625746#0 1034625746#1 1197548851#1 232149477#1"/>
   </person>
   <person depart="192.98969072164948" id="pedestrian2_80" type="ped_pedestrian">
      <walk edges="1197548851#1 1197548865#1 1104847359"/>
   </person>
   <person depart="198.77300613496934" id="pedestrian5_1278" type="ped_pedestrian">
      <walk edges="1197548868#2 1197548851#1 232149477#1 232149477#0 232149476#2"/>
   </person>
   <person depart="200.41237113402062" id="pedestrian2_588" type="ped_pedestrian">
      <walk edges="1197548851#1 1197548865#1 1104847359"/>
   </person>
   <person depart="200.93023255813955" id="pedestrian3_1246" type="ped_pedestrian">
      <walk edges="1104847359 1197548865#1 1197548868#2 1197548868#1 1197548868#0"/>
   </person>
   <person depart="203.13479623824452" id="pedestrian1_633" type="ped_pedestrian">
      <walk edges="1034625746#0 1034625746#1 1197548851#1 232149477#1"/>
   </person>
   <person depart="203.47826086956522" id="pedestrian4_10" type="ped_pedestrian">
      <walk edges="-50799230#3 1197548865#1 1104847359"/>
   </person>
   <person depart="207.83505154639175" id="pedestrian2_508" type="ped_pedestrian">
      <walk edges="1197548851#1 1197548865#1 1104847359"/>
   </person>
   <person depart="208.69565217391303" id="pedestrian6_605" type="ped_pedestrian">
      <walk edges="1197548845#3 1120094388#1 -130285156#1 -130285156#2 1197548868#2"/>
   </person>
   <person depart="214.42006269592477" id="pedestrian1_976" type="ped_pedestrian">
      <walk edges="1034625746#0 1034625746#1 1197548851#1 232149477#1"/>
   </person>
   <person depart="215.2577319587629" id="pedestrian2_667" type="ped_pedestrian">
      <walk edges="1197548851#1 1197548865#1 1104847359"/>
   </person>
   <person depart="217.67441860465118" id="pedestrian3_129" type="ped_pedestrian">
      <walk edges="1104847359 1197548865#1 1197548868#2 1197548868#1 1197548868#0"/>
   </person>
   <person depart="219.1304347826087" id="pedestrian4_114" type="ped_pedestrian">
      <walk edges="-50799230#3 1197548865#1 1104847359"/>
   </person>
   <person depart="220.8588957055215" id="pedestrian5_899" type="ped_pedestrian">
      <walk edges="1197548868#2 1197548851#1 232149477#1 232149477#0 232149476#2"/>
   </person>
   <person depart="222.68041237113403" id="pedestrian2_407" type="ped_pedestrian">
      <walk edges="1197548851#1 1197548865#1 1104847359"/>
   </person>
   <person depart="225.70532915360502" id="pedestrian1_586" type="ped_pedestrian">
      <walk edges="1034625746#0 1034625746#1 1197548851#1 232149477#1"/>
   </person>
   <person depart="230.10309278350516" id="pedestrian2_574" type="ped_pedestrian">
      <walk edges="1197548851#1 1197548865#1 1104847359"/>
   </person>
   <person depart="234.4186046511628" id="pedestrian3_430" type="ped_pedestrian">
      <walk edges="1104847359 1197548865#1 1197548868#2 1197548868#1 1197548868#0"/>
   </person>
   <person depart="234.7826086956522" id="pedestrian4_1467" type="ped_pedestrian">
      <walk edges="-50799230#3 1197548865#1 1104847359"/>
   </person>
   <person depart="236.99059561128527" id="pedestrian1_1287" type="ped_pedestrian">
      <walk edges="1034625746#0 1034625746#1 1197548851#1 232149477#1"/>
   </person>
   <person depart="237.5257731958763" id="pedestrian2_590" type="ped_pedestrian">
      <walk edges="1197548851#1 1197548865#1 1104847359"/>
   </person>
   <person depart="242.94478527607362" id="pedestrian5_823" type="ped_pedestrian">
      <walk edges="1197548868#2 1197548851#1 232149477#1 232149477#0 232149476#2"/>
   </person>
   <person depart="244.94845360824743" id="pedestrian2_772" type="ped_pedestrian">
      <walk edges="1197548851#1 1197548865#1 1104847359"/>
   </person>
   <person depart="248.27586206896552" id="pedestrian1_442" type="ped_pedestrian">
      <walk edges="1034625746#0 1034625746#1 1197548851#1 232149477#1"/>
   </person>
   <person depart="250.43478260869566" id="pedestrian4_1119" type="ped_pedestrian">
      <walk edges="-50799230#3 1197548865#1 1104847359"/>
   </person>
   <person depart="251.16279069767444" id="pedestrian3_1404" type="ped_pedestrian">
      <walk edges="1104847359 1197548865#1 1197548868#2 1197548868#1 1197548868#0"/>
   </person>
   <person depart="252.37113402061857" id="pedestrian2_234" type="ped_pedestrian">
      <walk edges="1197548851#1 1197548865#1 1104847359"/>
   </person>
   <person depart="259.5611285266458" id="pedestrian1_390" type="ped_pedestrian">
      <walk edges="1034625746#0 1034625746#1 1197548851#1 232149477#1"/>
   </person>
   <person depart="259.7938144329897" id="pedestrian2_1406" type="ped_pedestrian">
      <walk edges="1197548851#1 1197548865#1 1104847359"/>
   </person>
   <person depart="260.8695652173913" id="pedestrian6_1019" type="ped_pedestrian">
      <walk edges="1197548845#3 1120094388#1 -130285156#1 -130285156#2 1197548868#2"/>
   </person>
   <person depart="265.03067484662574" id="pedestrian5_646" type="ped_pedestrian">
      <walk edges="1197548868#2 1197548851#1 232149477#1 232149477#0 232149476#2"/>
   </person>
   <person depart="266.0869565217391" id="pedestrian4_1116" type="ped_pedestrian">
      <walk edges="-50799230#3 1197548865#1 1104847359"/>
   </person>
   <person depart="267.21649484536084" id="pedestrian2_213" type="ped_pedestrian">
      <walk edges="1197548851#1 1197548865#1 1104847359"/>
   </person>
   <person depart="267.90697674418607" id="pedestrian3_1018" type="ped_pedestrian">
      <walk edges="1104847359 1197548865#1 1197548868#2 1197548868#1 1197548868#0"/>
   </person>
   <person depart="270.846394984326" id="pedestrian1_554" type="ped_pedestrian">
      <walk edges="1034625746#0 1034625746#1 1197548851#1 232149477#1"/>
   </person>
   <person depart="274.63917525773195" id="pedestrian2_514" type="ped_pedestrian">
      <walk edges="1197548851#1 1197548865#1 1104847359"/>
   </person>
   <person depart="281.7391304347826" id="pedestrian4_1225" type="ped_pedestrian">
      <walk edges="-50799230#3 1197548865#1 1104847359"/>
   </person>
   <person depart="282.0618556701031" id="pedestrian2_992" type="ped_pedestrian">
      <walk edges="1197548851#1 1197548865#1 1104847359"/>
   </person>
   <person depart="282.13166144200625" id="pedestrian1_128" type="ped_pedestrian">
      <walk edges="1034625746#0 1034625746#1 1197548851#1 232149477#1"/>
   </person>
   <person depart="284.6511627906977" id="pedestrian3_1324" type="ped_pedestrian">
      <walk edges="1104847359 1197548865#1 1197548868#2 1197548868#1 1197548868#0"/>
   </person>
   <person depart="287.1165644171779" id="pedestrian5_226" type="ped_pedestrian">
      <walk edges="1197548868#2 1197548851#1 232149477#1 232149477#0 232149476#2"/>
   </person>
   <person depart="289.4845360824742" id="pedestrian2_832" type="ped_pedestrian">
      <walk edges="1197548851#1 1197548865#1 1104847359"/>
   </person>
   <person depart="293.4169278996865" id="pedestrian1_603" type="ped_pedestrian">
      <walk edges="1034625746#0 1034625746#1 1197548851#1 232149477#1"/>
   </person>
   <person depart="296.9072164948454" id="pedestrian2_440" type="ped_pedestrian">
      <walk edges="1197548851#1 1197548865#1 1104847359"/>
   </person>
   <person depart="297.39130434782606" id="pedestrian4_735" type="ped_pedestrian">
      <walk edges="-50799230#3 1197548865#1 1104847359"/>
   </person>
   <person depart="301.3953488372093" id="pedestrian3_1175" type="ped_pedestrian">
      <walk edges="1104847359 1197548865#1 1197548868#2 1197548868#1 1197548868#0"/>
   </person>
   <person depart="304.3298969072165" id="pedestrian2_527" type="ped_pedestrian">
      <walk edges="1197548851#1 1197548865#1 1104847359"/>
   </person>
   <person depart="304.7021943573668" id="pedestrian1_4" type="ped_pedestrian">
      <walk edges="1034625746#0 1034625746#1 1197548851#1 232149477#1"/>
   </person>
   <person depart="309.20245398773005" id="pedestrian5_924" type="ped_pedestrian">
      <walk edges="1197548868#2 1197548851#1 232149477#1 232149477#0 232149476#2"/>
   </person>
   <person depart="311.75257731958766" id="pedestrian2_716" type="ped_pedestrian">
      <walk edges="1197548851#1 1197548865#1 1104847359"/>
   </person>
   <person depart="313.04347826086956" id="pedestrian4_427" type="ped_pedestrian">
      <walk edges="-50799230#3 1197548865#1 1104847359"/>
   </person>
   <person depart="313.04347826086956" id="pedestrian6_604" type="ped_pedestrian">
      <walk edges="1197548845#3 1120094388#1 -130285156#1 -130285156#2 1197548868#2"/>
   </person>
   <person depart="315.98746081504703" id="pedestrian1_56" type="ped_pedestrian">
      <walk edges="1034625746#0 1034625746#1 1197548851#1 232149477#1"/>
   </person>
   <person depart="318.13953488372096" id="pedestrian3_277" type="ped_pedestrian">
      <walk edges="1104847359 1197548865#1 1197548868#2 1197548868#1 1197548868#0"/>
   </person>
   <person depart="319.17525773195877" id="pedestrian2_1232" type="ped_pedestrian">
      <walk edges="1197548851#1 1197548865#1 1104847359"/>
   </person>
   <person depart="326.59793814432993" id="pedestrian2_424" type="ped_pedestrian">
      <walk edges="1197548851#1 1197548865#1 1104847359"/>
   </person>
   <person depart="327.27272727272725" id="pedestrian1_1241" type="ped_pedestrian">
      <walk edges="1034625746#0 1034625746#1 1197548851#1 232149477#1"/>
   </person>
   <person depart="328.69565217391306" id="pedestrian4_987" type="ped_pedestrian">
      <walk edges="-50799230#3 1197548865#1 1104847359"/>
   </person>
   <person depart="331.28834355828224" id="pedestrian5_897" type="ped_pedestrian">
      <walk edges="1197548868#2 1197548851#1 232149477#1 232149477#0 232149476#2"/>
   </person>
   <person depart="334.02061855670104" id="pedestrian2_712" type="ped_pedestrian">
      <walk edges="1197548851#1 1197548865#1 1104847359"/>
   </person>
   <person depart="334.8837209302326" id="pedestrian3_1412" type="ped_pedestrian">
      <walk edges="1104847359 1197548865#1 1197548868#2 1197548868#1 1197548868#0"/>
   </person>
   <person depart="338.55799373040753" id="pedestrian1_966" type="ped_pedestrian">
      <walk edges="1034625746#0 1034625746#1 1197548851#1 232149477#1"/>
   </person>
   <person depart="341.4432989690722" id="pedestrian2_1340" type="ped_pedestrian">
      <walk edges="1197548851#1 1197548865#1 1104847359"/>
   </person>
   <person depart="344.3478260869565" id="pedestrian4_333" type="ped_pedestrian">
      <walk edges="-50799230#3 1197548865#1 1104847359"/>
   </person>
   <person depart="348.8659793814433" id="pedestrian2_331" type="ped_pedestrian">
      <walk edges="1197548851#1 1197548865#1 1104847359"/>
   </person>
   <person depart="349.8432601880878" id="pedestrian1_473" type="ped_pedestrian">
      <walk edges="1034625746#0 1034625746#1 1197548851#1 232149477#1"/>
   </person>
   <person depart="351.6279069767442" id="pedestrian3_109" type="ped_pedestrian">
      <walk edges="1104847359 1197548865#1 1197548868#2 1197548868#1 1197548868#0"/>
   </person>
   <person depart="353.37423312883436" id="pedestrian5_866" type="ped_pedestrian">
      <walk edges="1197548868#2 1197548851#1 232149477#1 232149477#0 232149476#2"/>
   </person>
   <person depart="356.2886597938144" id="pedestrian2_1162" type="ped_pedestrian">
      <walk edges="1197548851#1 1197548865#1 1104847359"/>
   </person>
   <person depart="360.0" id="pedestrian4_1108" type="ped_pedestrian">
      <walk edges="-50799230#3 1197548865#1 1104847359"/>
   </person>
   <person depart="361.12852664576803" id="pedestrian1_265" type="ped_pedestrian">
      <walk edges="1034625746#0 1034625746#1 1197548851#1 232149477#1"/>
   </person>
   <person depart="363.7113402061856" id="pedestrian2_1062" type="ped_pedestrian">
      <walk edges="1197548851#1 1197548865#1 1104847359"/>
   </person>
   <person depart="365.2173913043478" id="pedestrian6_308" type="ped_pedestrian">
      <walk edges="1197548845#3 1120094388#1 -130285156#1 -130285156#2 1197548868#2"/>
   </person>
   <person depart="368.37209302325584" id="pedestrian3_1217" type="ped_pedestrian">
      <walk edges="1104847359 1197548865#1 1197548868#2 1197548868#1 1197548868#0"/>
   </person>
   <person depart="371.1340206185567" id="pedestrian2_540" type="ped_pedestrian">
      <walk edges="1197548851#1 1197548865#1 1104847359"/>
   </person>
   <person depart="372.41379310344826" id="pedestrian1_190" type="ped_pedestrian">
      <walk edges="1034625746#0 1034625746#1 1197548851#1 232149477#1"/>
   </person>
   <person depart="375.4601226993865" id="pedestrian5_405" type="ped_pedestrian">
      <walk edges="1197548868#2 1197548851#1 232149477#1 232149477#0 232149476#2"/>
   </person>
   <person depart="375.6521739130435" id="pedestrian4_1434" type="ped_pedestrian">
      <walk edges="-50799230#3 1197548865#1 1104847359"/>
   </person>
   <person depart="378.55670103092785" id="pedestrian2_533" type="ped_pedestrian">
      <walk edges="1197548851#1 1197548865#1 1104847359"/>
   </person>
   <person depart="383.69905956112854" id="pedestrian1_368" type="ped_pedestrian">
      <walk edges="1034625746#0 1034625746#1 1197548851#1 232149477#1"/>
   </person>
   <person depart="385.1162790697675" id="pedestrian3_1422" type="ped_pedestrian">
      <walk edges="1104847359 1197548865#1 1197548868#2 1197548868#1 1197548868#0"/>
   </person>
   <person depart="385.97938144329896" id="pedestrian2_550" type="ped_pedestrian">
      <walk edges="1197548851#1 1197548865#1 1104847359"/>
   </person>
   <person depart="391.30434782608694" id="pedestrian4_1198" type="ped_pedestrian">
      <walk edges="-50799230#3 1197548865#1 1104847359"/>
   </person>
   <person depart="393.4020618556701" id="pedestrian2_361" type="ped_pedestrian">
      <walk edges="1197548851#1 1197548865#1 1104847359"/>
   </person>
   <person depart="394.9843260188088" id="pedestrian1_954" type="ped_pedestrian">
      <walk edges="1034625746#0 1034625746#1 1197548851#1 232149477#1"/>
   </person>
   <person depart="397.5460122699387" id="pedestrian5_1016" type="ped_pedestrian">
      <walk edges="1197548868#2 1197548851#1 232149477#1 232149477#0 232149476#2"/>
   </person>
   <person depart="400.82474226804123" id="pedestrian2_1191" type="ped_pedestrian">
      <walk edges="1197548851#1 1197548865#1 1104847359"/>
   </person>
   <person depart="401.8604651162791" id="pedestrian3_1327" type="ped_pedestrian">
      <walk edges="1104847359 1197548865#1 1197548868#2 1197548868#1 1197548868#0"/>
   </person>
   <person depart="406.26959247648904" id="pedestrian1_516" type="ped_pedestrian">
      <walk edges="1034625746#0 1034625746#1 1197548851#1 232149477#1"/>
   </person>
   <person depart="406.95652173913044" id="pedestrian4_864" type="ped_pedestrian">
      <walk edges="-50799230#3 1197548865#1 1104847359"/>
   </person>
   <person depart="408.2474226804124" id="pedestrian2_906" type="ped_pedestrian">
      <walk edges="1197548851#1 1197548865#1 1104847359"/>
   </person>
   <person depart="415.6701030927835" id="pedestrian2_580" type="ped_pedestrian">
      <walk edges="1197548851#1 1197548865#1 1104847359"/>
   </person>
   <person depart="417.39130434782606" id="pedestrian6_414" type="ped_pedestrian">
      <walk edges="1197548845#3 1120094388#1 -130285156#1 -130285156#2 1197548868#2"/>
   </person>
   <person depart="417.55485893416926" id="pedestrian1_163" type="ped_pedestrian">
      <walk edges="1034625746#0 1034625746#1 1197548851#1 232149477#1"/>
   </person>
   <person depart="418.60465116279073" id="pedestrian3_218" type="ped_pedestrian">
      <walk edges="1104847359 1197548865#1 1197548868#2 1197548868#1 1197548868#0"/>
   </person>
   <person depart="419.6319018404908" id="pedestrian5_324" type="ped_pedestrian">
      <walk edges="1197548868#2 1197548851#1 232149477#1 232149477#0 232149476#2"/>
   </person>
   <person depart="422.60869565217394" id="pedestrian4_259" type="ped_pedestrian">
      <walk edges="-50799230#3 1197548865#1 1104847359"/>