<?xml version="1.0" ?>
<routes>
   <vType id="veh_type_0" carFollowModel="IDM" T="2.415" a="3.119" b="5.824" v0="21.882" so="4.061" delta="4.000"/>
   <vType id="veh_type_1" carFollowModel="IDM" T="2.113" a="3.468" b="5.915" v0="22.476" so="4.012" delta="4.000"/>
   <vType id="veh_type_2" carFollowModel="IDM" T="2.205" a="3.708" b="5.752" v0="22.191" so="4.262" delta="4.000"/>
   <vType id="veh_type_3" carFollowModel="IDM" T="2.407" a="3.837" b="5.517" v0="21.614" so="3.898" delta="4.000"/>
   <vType id="veh_type_4" carFollowModel="IDM" T="2.892" a="3.395" b="5.633" v0="22.443" so="5.752" delta="4.000"/>
   <vehicle id="veh51_7" type="veh_type_2" depart="0.0" departLane="best" departSpeed="max">
      <route edges="50799230#0 50799230#3 590598876#1"/>
   </vehicle>
   <vehicle id="veh55_82" type="veh_type_2" depart="0.0" departLane="best" departSpeed="max">
      <route edges="50799230#0 50799230#3 -130285156#2 -130285156#1 -130285156#0 -1120094388#0"/>
   </vehicle>
   <vehicle id="veh1_96" type="veh_type_1" depart="0.0" departLane="best" departSpeed="max">
      <route edges="-590598876#1 -130285156#2 -130285156#1 -130285156#0 -1120094388#0"/>
   </vehicle>
   <vehicle id="veh60_234" type="veh_type_4" depart="0.0" departLane="best" departSpeed="max">
      <route edges="1120094388#0 1120094388#1 130285156#1 130285156#2 -50799230#3 -50799230#2"/>
   </vehicle>
   <vehicle id="veh0_597" type="veh_type_2" depart="0.0" departLane="best" departSpeed="max">
      <route edges="1120094388#0 1120094388#1 130285156#1 130285156#2 590598876#1"/>
   </vehicle>
   <vehicle id="veh98_674" type="veh_type_4" depart="0.0" departLane="best" departSpeed="max">
      <route edges="-590598876#1 -50799230#3 -50799230#2"/>
   </vehicle>
   <vehicle id="veh0_400" type="veh_type_0" depart="7.594936708860759" departLane="best" departSpeed="max">
      <route edges="1120094388#0 1120094388#1 130285156#1 130285156#2 590598876#1"/>
   </vehicle>
   <vehicle id="veh1_525" type="veh_type_0" depart="14.342629482071713" departLane="best" departSpeed="max">
      <route edges="-590598876#1 -130285156#2 -130285156#1 -130285156#0 -1120094388#0"/>
   </vehicle>
   <vehicle id="veh0_794" type="veh_type_4" depart="15.189873417721518" departLane="best" departSpeed="max">
      <route edges="1120094388#0 1120094388#1 130285156#1 130285156#2 590598876#1"/>
   </vehicle>
   <vehicle id="veh0_121" type="veh_type_1" depart="22.78481012658228" departLane="best" departSpeed="max">
      <route edges="1120094388#0 1120094388#1 130285156#1 130285156#2 590598876#1"/>
   </vehicle>
   <vehicle id="veh1_473" type="veh_type_3" depart="28.685258964143426" departLane="best" departSpeed="max">
      <route edges="-590598876#1 -130285156#2 -130285156#1 -130285156#0 -1120094388#0"/>
   </vehicle>
   <vehicle id="veh0_619" type="veh_type_4" depart="30.379746835443036" departLane="best" departSpeed="max">
      <route edges="1120094388#0 1120094388#1 130285156#1 130285156#2 590598876#1"/>
   </vehicle>
   <vehicle id="veh0_728" type="veh_type_3" depart="37.974683544303794" departLane="best" departSpeed="max">
      <route edges="1120094388#0 1120094388#1 130285156#1 130285156#2 590598876#1"/>
   </vehicle>
   <vehicle id="veh1_227" type="veh_type_2" depart="43.02788844621514" departLane="best" departSpeed="max">
      <route edges="-590598876#1 -130285156#2 -130285156#1 -130285156#0 -1120094388#0"/>
   </vehicle>
   <vehicle id="veh0_432" type="veh_type_2" depart="45.56962025316456" departLane="best" departSpeed="max">
      <route edges="1120094388#0 1120094388#1 130285156#1 130285156#2 590598876#1"/>
   </vehicle>
   <vehicle id="veh0_25" type="veh_type_0" depart="53.164556962025316" departLane="best" departSpeed="max">
      <route edges="1120094388#0 1120094388#1 130285156#1 130285156#2 590598876#1"/>
   </vehicle>
   <vehicle id="veh60_101" type="veh_type_1" depart="55.38461538461539" departLane="best" departSpeed="max">
      <route edges="1120094388#0 1120094388#1 130285156#1 130285156#2 -50799230#3 -50799230#2"/>
   </vehicle>
   <vehicle id="veh1_32" type="veh_type_2" depart="57.37051792828685" departLane="best" departSpeed="max">
      <route edges="-590598876#1 -130285156#2 -130285156#1 -130285156#0 -1120094388#0"/>
   </vehicle>
   <vehicle id="veh0_156" type="veh_type_1" depart="60.75949367088607" departLane="best" departSpeed="max">
      <route edges="1120094388#0 1120094388#1 130285156#1 130285156#2 590598876#1"/>
   </vehicle>
   <vehicle id="veh51_667" type="veh_type_2" depart="65.45454545454545" departLane="best" departSpeed="max">
      <route edges="50799230#0 50799230#3 590598876#1"/>
   </vehicle>
   <vehicle id="veh0_476" type="veh_type_1" depart="68.35443037974683" departLane="best" departSpeed="max">
      <route edges="1120094388#0 1120094388#1 130285156#1 130285156#2 590598876#1"/>
   </vehicle>
   <vehicle id="veh1_538" type="veh_type_3" depart="71.71314741035856" departLane="best" departSpeed="max">
      <route edges="-590598876#1 -130285156#2 -130285156#1 -130285156#0 -1120094388#0"/>
   </vehicle>
   <vehicle id="veh0_721" type="veh_type_1" depart="75.94936708860759" departLane="best" departSpeed="max">
      <route edges="1120094388#0 1120094388#1 130285156#1 130285156#2 590598876#1"/>
   </vehicle>
   <vehicle id="veh0_448" type="veh_type_3" depart="83.54430379746834" departLane="best" departSpeed="max">
      <route edges="1120094388#0 1120094388#1 130285156#1 130285156#2 590598876#1"/>
   </vehicle>
   <vehicle id="veh1_397" type="veh_type_2" depart="86.05577689243027" departLane="best" departSpeed="max">
      <route edges="-590598876#1 -130285156#2 -130285156#1 -130285156#0 -1120094388#0"/>
   </vehicle>
   <vehicle id="veh0_600" type="veh_type_0" depart="91.13924050632912" departLane="best" departSpeed="max">
      <route edges="1120094388#0 1120094388#1 130285156#1 130285156#2 590598876#1"/>
   </vehicle>
   <vehicle id="veh0_760" type="veh_type_0" depart="98.73417721518987" departLane="best" departSpeed="max">
      <route edges="1120094388#0 1120094388#1 130285156#1 130285156#2 590598876#1"/>
   </vehicle>
   <vehicle id="veh1_682" type="veh_type_2" depart="100.39840637450199" departLane="best" departSpeed="max">
      <route edges="-590598876#1 -130285156#2 -130285156#1 -130285156#0 -1120094388#0"/>
   </vehicle>
   <vehicle id="veh0_185" type="veh_type_0" depart="106.32911392405063" departLane="best" departSpeed="max">
      <route edges="1120094388#0 1120094388#1 130285156#1 130285156#2 590598876#1"/>
   </vehicle>
   <vehicle id="veh60_530" type="veh_type_0" depart="110.76923076923077" departLane="best" departSpeed="max">
      <route edges="1120094388#0 1120094388#1 130285156#1 130285156#2 -50799230#3 -50799230#2"/>
   </vehicle>
   <vehicle id="veh0_622" type="veh_type_2" depart="113.92405063291139" departLane="best" departSpeed="max">
      <route edges="1120094388#0 1120094388#1 130285156#1 130285156#2 590598876#1"/>
   </vehicle>
   <vehicle id="veh1_591" type="veh_type_1" depart="114.7410358565737" departLane="best" departSpeed="max">
      <route edges="-590598876#1 -130285156#2 -130285156#1 -130285156#0 -1120094388#0"/>
   </vehicle>
   <vehicle id="veh0_809" type="veh_type_4" depart="121.51898734177215" departLane="best" departSpeed="max">
      <route edges="1120094388#0 1120094388#1 130285156#1 130285156#2 590598876#1"/>
   </vehicle>
   <vehicle id="veh1_496" type="veh_type_1" depart="129.0836653386454" departLane="best" departSpeed="max">
      <route edges="-590598876#1 -130285156#2 -130285156#1 -130285156#0 -1120094388#0"/>
   </vehicle>
   <vehicle id="veh0_535" type="veh_type_0" depart="129.1139240506329" departLane="best" departSpeed="max">
      <route edges="1120094388#0 1120094388#1 130285156#1 130285156#2 590598876#1"/>
   </vehicle>
   <vehicle id="veh51_458" type="veh_type_3" depart="130.9090909090909" departLane="best" departSpeed="max">
      <route edges="50799230#0 50799230#3 590598876#1"/>
   </vehicle>
   <vehicle id="veh0_781" type="veh_type_1" depart="136.70886075949366" departLane="best" departSpeed="max">
      <route edges="1120094388#0 1120094388#1 130285156#1 130285156#2 590598876#1"/>
   </vehicle>
   <vehicle id="veh1_617" type="veh_type_2" depart="143.42629482071712" departLane="best" departSpeed="max">
      <route edges="-590598876#1 -130285156#2 -130285156#1 -130285156#0 -1120094388#0"/>
   </vehicle>
   <vehicle id="veh0_17" type="veh_type_2" depart="144.30379746835442" departLane="best" departSpeed="max">
      <route edges="1120094388#0 1120094388#1 130285156#1 130285156#2 590598876#1"/>
   </vehicle>
   <vehicle id="veh55_743" type="veh_type_3" depart="150.0" departLane="best" departSpeed="max">
      <route edges="50799230#0 50799230#3 -130285156#2 -130285156#1 -130285156#0 -1120094388#0"/>
   </vehicle>
   <vehicle id="veh0_378" type="veh_type_3" depart="151.89873417721518" departLane="best" departSpeed="max">
      <route edges="1120094388#0 1120094388#1 130285156#1 130285156#2 590598876#1"/>
   </vehicle>
   <vehicle id="veh1_139" type="veh_type_4" depart="157.76892430278883" departLane="best" departSpeed="max">
      <route edges="-590598876#1 -130285156#2 -130285156#1 -130285156#0 -1120094388#0"/>
   </vehicle>
   <vehicle id="veh0_767" type="veh_type_2" depart="159.49367088607593" departLane="best" departSpeed="max">
      <route edges="1120094388#0 1120094388#1 130285156#1 130285156#2 590598876#1"/>
   </vehicle>
   <vehicle id="veh60_290" type="veh_type_0" depart="166.15384615384616" departLane="best" departSpeed="max">
      <route edges="1120094388#0 1120094388#1 130285156#1 130285156#2 -50799230#3 -50799230#2"/>
   </vehicle>
   <vehicle id="veh0_764" type="veh_type_4" depart="167.0886075949367" departLane="best" departSpeed="max">
      <route edges="1120094388#0 1120094388#1 130285156#1 130285156#2 590598876#1"/>
   </vehicle>
   <vehicle id="veh1_198" type="veh_type_3" depart="172.11155378486055" departLane="best" departSpeed="max">
      <route edges="-590598876#1 -130285156#2 -130285156#1 -130285156#0 -1120094388#0"/>
   </vehicle>
   <vehicle id="veh0_732" type="veh_type_2" depart="174.68354430379745" departLane="best" departSpeed="max">
      <route edges="1120094388#0 1120094388#1 130285156#1 130285156#2 590598876#1"/>
   </vehicle>
   <vehicle id="veh0_604" type="veh_type_4" depart="182.27848101265823" departLane="best" departSpeed="max">
      <route edges="1120094388#0 1120094388#1 130285156#1 130285156#2 590598876#1"/>
   </vehicle>
   <vehicle id="veh1_5" type="veh_type_0" depart="186.45418326693226" departLane="best" departSpeed="max">
      <route edges="-590598876#1 -130285156#2 -130285156#1 -130285156#0 -1120094388#0"/>
   </vehicle>
   <vehicle id="veh0_626" type="veh_type_1" depart="189.873417721519" departLane="best" departSpeed="max">
      <route edges="1120094388#0 1120094388#1 130285156#1 130285156#2 590598876#1"/>
   </vehicle>
   <vehicle id="veh51_453" type="veh_type_3" depart="196.36363636363637" departLane="best" departSpeed="max">
      <route edges="50799230#0 50799230#3 590598876#1"/>
   </vehicle>
   <vehicle id="veh0_564" type="veh_type_4" depart="197.46835443037975" departLane="best" departSpeed="max">
      <route edges="1120094388#0 1120094388#1 130285156#1 130285156#2 590598876#1"/>
   </vehicle>
   <vehicle id="veh1_757" type="veh_type_2" depart="200.79681274900398" departLane="best" departSpeed="max">
      <route edges="-590598876#1 -130285156#2 -130285156#1 -130285156#0 -1120094388#0"/>
   </vehicle>
   <vehicle id="veh0_795" type="veh_type_0" depart="205.0632911392405" departLane="best" departSpeed="max">
      <route edges="1120094388#0 1120094388#1 130285156#1 130285156#2 590598876#1"/>
   </vehicle>
   <vehicle id="veh0_292" type="veh_type_2" depart="212.65822784810126" departLane="best" departSpeed="max">
      <route edges="1120094388#0 1120094388#1 130285156#1 130285156#2 590598876#1"/>
   </vehicle>
   <vehicle id="veh1_149" type="veh_type_4" depart="215.1394422310757" departLane="best" departSpeed="max">
      <route edges="-590598876#1 -130285156#2 -130285156#1 -130285156#0 -1120094388#0"/>
   </vehicle>
   <vehicle id="veh0_541" type="veh_type_1" depart="220.25316455696202" departLane="best" departSpeed="max">
      <route edges="1120094388#0 1120094388#1 130285156#1 130285156#2 590598876#1"/>
   </vehicle>
   <vehicle id="veh60_109" type="veh_type_4" depart="221.53846153846155" departLane="best" departSpeed="max">
      <route edges="1120094388#0 1120094388#1 130285156#1 130285156#2 -50799230#3 -50799230#2"/>
   </vehicle>
   <vehicle id="veh0_874" type="veh_type_4" depart="227.84810126582278" departLane="best" departSpeed="max">
      <route edges="1120094388#0 1120094388#1 130285156#1 130285156#2 590598876#1"/>
   </vehicle>
   <vehicle id="veh1_861" type="veh_type_1" depart="229.4820717131474" departLane="best" departSpeed="max">
      <route edges="-590598876#1 -130285156#2 -130285156#1 -130285156#0 -1120094388#0"/>
   </vehicle>
   <vehicle id="veh0_35" type="veh_type_0" depart="235.44303797468353" departLane="best" departSpeed="max">
      <route edges="1120094388#0 1120094388#1 130285156#1 130285156#2 590598876#1"/>
   </vehicle>
   <vehicle id="veh98_135" type="veh_type_0" depart="240.0" departLane="best" departSpeed="max">
      <route edges="-590598876#1 -50799230#3 -50799230#2"/>
   </vehicle>
   <vehicle id="veh0_596" type="veh_type_1" depart="243.0379746835443" departLane="best" departSpeed="max">
      <route edges="1120094388#0 1120094388#1 130285156#1 130285156#2 590598876#1"/>
   </vehicle>
   <vehicle id="veh1_773" type="veh_type_3" depart="243.82470119521912" departLane="best" departSpeed="max">
      <route edges="-590598876#1 -130285156#2 -130285156#1 -130285156#0 -1120094388#0"/>
   </vehicle>
   <vehicle id="veh0_273" type="veh_type_3" depart="250.63291139240505" departLane="best" departSpeed="max">
      <route edges="1120094388#0 1120094388#1 130285156#1 130285156#2 590598876#1"/>
   </vehicle>
   <vehicle id="veh1_100" type="veh_type_0" depart="258.1673306772908" departLane="best" departSpeed="max">
      <route edges="-590598876#1 -130285156#2 -130285156#1 -130285156#0 -1120094388#0"/>
   </vehicle>
   <vehicle id="veh0_865" type="veh_type_0" depart="258.2278481012658" departLane="best" departSpeed="max">
      <route edges="1120094388#0 1120094388#1 130285156#1 130285156#2 590598876#1"/>
   </vehicle>
   <vehicle id="veh51_352" type="veh_type_2" depart="261.8181818181818" departLane="best" departSpeed="max">
      <route edges="50799230#0 50799230#3 590598876#1"/>
   </vehicle>
   <vehicle id="veh0_560" type="veh_type_0" depart="265.82278481012656" departLane="best" departSpeed="max">
      <route edges="1120094388#0 1120094388#1 130285156#1 130285156#2 590598876#1"/>
   </vehicle>
   <vehicle id="veh1_53" type="veh_type_3" depart="272.50996015936255" departLane="best" departSpeed="max">
      <route edges="-590598876#1 -130285156#2 -130285156#1 -130285156#0 -1120094388#0"/>
   </vehicle>
   <vehicle id="veh0_713" type="veh_type_3" depart="273.4177215189873" departLane="best" departSpeed="max">
      <route edges="1120094388#0 1120094388#1 130285156#1 130285156#2 590598876#1"/>
   </vehicle>
   <vehicle id="veh60_279" type="veh_type_4" depart="276.9230769230769" departLane="best" departSpeed="max">
      <route edges="1120094388#0 1120094388#1 130285156#1 130285156#2 -50799230#3 -50799230#2"/>
   </vehicle>
   <vehicle id="veh0_60" type="veh_type_0" depart="281.0126582278481" departLane="best" departSpeed="max">
      <route edges="1120094388#0 1120094388#1 130285156#1 130285156#2 590598876#1"/>
   </vehicle>
   <vehicle id="veh1_758" type="veh_type_3" depart="286.85258964143424" departLane="best" departSpeed="max">
      <route edges="-590598876#1 -130285156#2 -130285156#1 -130285156#0 -1120094388#0"/>
   </vehicle>
   <vehicle id="veh0_254" type="veh_type_4" depart="288.60759493670884" departLane="best" departSpeed="max">
      <route edges="1120094388#0 1120094388#1 130285156#1 130285156#2 590598876#1"/>
   </vehicle>
   <vehicle id="veh0_414" type="veh_type_4" depart="296.2025316455696" departLane="best" departSpeed="max">
      <route edges="1120094388#0 1120094388#1 130285156#1 130285156#2 590598876#1"/>
   </vehicle>
   <vehicle id="veh55_698" type="veh_type_3" depart="300.0" departLane="best" departSpeed="max">
      <route edges="50799230#0 50799230#3 -130285156#2 -130285156#1 -130285156#0 -1120094388#0"/>
   </vehicle>
   <vehicle id="veh1_771" type="veh_type_1" depart="301.195219123506" departLane="best" departSpeed="max">
      <route edges="-590598876#1 -130285156#2 -130285156#1 -130285156#0 -1120094388#0"/>
   </vehicle>
   <vehicle id="veh0_739" type="veh_type_4" depart="303.79746835443035" departLane="best" departSpeed="max">
      <route edges="1120094388#0 1120094388#1 130285156#1 130285156#2 590598876#1"/>
   </vehicle>
   <vehicle id="veh0_34" type="veh_type_4" depart="311.3924050632911" departLane="best" departSpeed="max">
      <route edges="1120094388#0 1120094388#1 130285156#1 130285156#2 590598876#1"/>
   </vehicle>
   <vehicle id="veh1_272" type="veh_type_2" depart="315.53784860557766" departLane="best" departSpeed="max">
      <route edges="-590598876#1 -130285156#2 -130285156#1 -130285156#0 -1120094388#0"/>
   </vehicle>
   <vehicle id="veh0_643" type="veh_type_3" depart="318.98734177215186" departLane="best" departSpeed="max">
      <route edges="1120094388#0 1120094388#1 130285156#1 130285156#2 590598876#1"/>
   </vehicle>
   <vehicle id="veh0_164" type="veh_type_4" depart="326.5822784810126" departLane="best" departSpeed="max">
      <route edges="1120094388#0 1120094388#1 130285156#1 130285156#2 590598876#1"/>
   </vehicle>
   <vehicle id="veh51_450" type="veh_type_0" depart="327.27272727272725" departLane="best" departSpeed="max">
      <route edges="50799230#0 50799230#3 590598876#1"/>
   </vehicle>
   <vehicle id="veh1_4" type="veh_type_4" depart="329.8804780876494" departLane="best" departSpeed="max">
      <route edges="-590598876#1 -130285156#2 -130285156#1 -130285156#0 -1120094388#0"/>
   </vehicle>
   <vehicle id="veh60_850" type="veh_type_0" depart="332.3076923076923" departLane="best" departSpeed="max">
      <route edges="1120094388#0 1120094388#1 130285156#1 130285156#2 -50799230#3 -50799230#2"/>
   </vehicle>
   <vehicle id="veh0_192" type="veh_type_2" depart="334.1772151898734" departLane="best" departSpeed="max">
      <route edges="1120094388#0 1120094388#1 130285156#1 130285156#2 590598876#1"/>
   </vehicle>
   <vehicle id="veh0_556" type="veh_type_1" depart="341.77215189873414" departLane="best" departSpeed="max">
      <route edges="1120094388#0 1120094388#1 130285156#1 130285156#2 590598876#1"/>
   </vehicle>
   <vehicle id="veh1_533" type="veh_type_3" depart="344.2231075697211" departLane="best" departSpeed="max">
      <route edges="-590598876#1 -130285156#2 -130285156#1 -130285156#0 -1120094388#0"/>
   </vehicle>
   <vehicle id="veh0_409" type="veh_type_4" depart="349.3670886075949" departLane="best" departSpeed="max">
      <route edges="1120094388#0 1120094388#1 130285156#1 130285156#2 590598876#1"/>
   </vehicle>
   <vehicle id="veh0_544" type="veh_type_4" depart="356.96202531645565" departLane="best" departSpeed="max">
      <route edges="1120094388#0 1120094388#1 130285156#1 130285156#2 590598876#1"/>
   </vehicle>
   <vehicle id="veh1_395" type="veh_type_0" depart="358.56573705179284" departLane="best" departSpeed="max">
      <route edges="-590598876#1 -130285156#2 -130285156#1 -130285156#0 -1120094388#0"/>
   </vehicle>
   <vehicle id="veh0_460" type="veh_type_0" depart="364.55696202531647" departLane="best" departSpeed="max">
      <route edges="1120094388#0 1120094388#1 130285156#1 130285156#2 590598876#1"/>
   </vehicle>
   <vehicle id="veh0_11" type="veh_type_1" depart="372.1518987341772" departLane="best" departSpeed="max">
      <route edges="1120094388#0 1120094388#1 130285156#1 130285156#2 590598876#1"/>
   </vehicle>
   <vehicle id="veh1_609" type="veh_type_4" depart="372.9083665338645" departLane="best" departSpeed="max">
      <route edges="-590598876#1 -130285156#2 -130285156#1 -130285156#0 -1120094388#0"/>
   </vehicle>
   <vehicle id="veh0_226" type="veh_type_1" depart="379.746835443038" departLane="best" departSpeed="max">
      <route edges="1120094388#0 1120094388#1 130285156#1 130285156#2 590598876#1"/>
   </vehicle>
   <vehicle id="veh1_39" type="veh_type_4" depart="387.25099601593627" departLane="best" departSpeed="max">
      <route edges="-590598876#1 -130285156#2 -130285156#1 -130285156#0 -1120094388#0"/>
   </vehicle>
   <vehicle id="veh0_751" type="veh_type_1" depart="387.34177215189874" departLane="best" departSpeed="max">
      <route edges="1120094388#0 1120094388#1 130285156#1 130285156#2 590598876#1"/>
   </vehicle>
   <vehicle id="veh60_229" type="veh_type_4" depart="387.69230769230774" departLane="best" departSpeed="max">
      <route edges="1120094388#0 1120094388#1 130285156#1 130285156#2 -50799230#3 -50799230#2"/>
   </vehicle>
   <vehicle id="veh51_745" type="veh_type_0" depart="392.72727272727275" departLane="best" departSpeed="max">
      <route edges="50799230#0 50799230#3 590598876#1"/>
   </vehicle>
   <vehicle id="veh0_436" type="veh_type_1" depart="394.9367088607595" departLane="best" departSpeed="max">
      <route edges="1120094388#0 1120094388#1 130285156#1 130285156#2 590598876#1"/>
   </vehicle>
   <vehicle id="veh1_589" type="veh_type_4" depart="401.59362549800795" departLane="best" departSpeed="max">
      <route edges="-590598876#1 -130285156#2 -130285156#1 -130285156#0 -1120094388#0"/>
   </vehicle>
   <vehicle id="veh0_828" type="veh_type_3" depart="402.53164556962025" departLane="best" departSpeed="max">
      <route edges="1120094388#0 1120094388#1 130285156#1 130285156#2 590598876#1"/>
   </vehicle>
   <vehicle id="veh0_792" type="veh_type_2" depart="410.126582278481" departLane="best" departSpeed="max">
      <route edges="1120094388#0 1120094388#1 130285156#1 130285156#2 590598876#1"/>
   </vehicle>
   <vehicle id="veh1_51" type="veh_type_1" depart="415.9362549800797" departLane="best" departSpeed="max">
      <route edges="-590598876#1 -130285156#2 -130285156#1 -130285156#0 -1120094388#0"/>
   </vehicle>
   <vehicle id="veh0_221" type="veh_type_1" depart="417.72151898734177" departLane="best" departSpeed="max">
      <route edges="1120094388#0 1120094388#1 130285156#1 130285156#2 590598876#1"/>
   </vehicle>
   <vehicle id="veh0_826" type="veh_type_1" depart="425.3164556962025" departLane="best" departSpeed="max">
      <route edges="1120094388#0 1120094388#1 130285156#1 130285156#2 590598876#1"/>
   </vehicle>
   <vehicle id="veh1_691" type="veh_type_1" depart="430.2788844621514" departLane="best" departSpeed="max">
      <route edges="-590598876#1 -130285156#2 -130285156#1 -130285156#0 -1120094388#0"/>
   </vehicle>
   <vehicle id="veh0_733" type="veh_type_3" depart="432.9113924050633" departLane="best" departSpeed="max">
      <route edges="1120094388#0 1120094388#1 130285156#1 130285156#2 590598876#1"/>
   </vehicle>
   <vehicle id="veh0_507" type="veh_type_2" depart="440.50632911392404" departLane="best" departSpeed="max">
      <route edges="1120094388#0 1120094388#1 130285156#1 130285156#2 590598876#1"/>
   </vehicle>
   <vehicle id="veh60_209" type="veh_type_4" depart="443.0769230769231" departLane="best" departSpeed="max">
      <route edges="1120094388#0 1120094388#1 130285156#1 130285156#2 -50799230#3 -50799230#2"/>
   </vehicle>
   <vehicle id="veh1_276" type="veh_type_1" depart="444.6215139442231" departLane="best" departSpeed="max">
      <route edges="-590598876#1 -130285156#2 -130285156#1 -130285156#0 -1120094388#0"/>
   </vehicle>
   <vehicle id="veh0_603" type="veh_type_3" depart="448.1012658227848" departLane="best" departSpeed="max">
      <route edges="1120094388#0 1120094388#1 130285156#1 130285156#2 590598876#1"/>
   </vehicle>
   <vehicle id="veh55_532" type="veh_type_2" depart="450.0" departLane="best" departSpeed="max">
      <route edges="50799230#0 50799230#3 -130285156#2 -130285156#1 -130285156#0 -1120094388#0"/>
   </vehicle>
   <vehicle id="veh0_703" type="veh_type_3" depart="455.69620253164555" departLane="best" departSpeed="max">
      <route edges="1120094388#0 1120094388#1 130285156#1 130285156#2 590598876#1"/>
   </vehicle>
   <vehicle id="veh51_364" type="veh_type_4" depart="458.1818181818182" departLane="best" departSpeed="max">
      <route edges="50799230#0 50799230#3 590598876#1"/>
   </vehicle>
   <vehicle id="veh1_569" type="veh_type_4" depart="458.9641434262948" departLane="best" departSpeed="max">
      <route edges="-590598876#1 -130285156#2 -130285156#1 -130285156#0 -1120094388#0"/>
   </vehicle>
   <vehicle id="veh0_215" type="veh_type_0" depart="463.2911392405063" departLane="best" departSpeed="max">
      <route edges="1120094388#0 1120094388#1 130285156#1 130285156#2 590598876#1"/>
   </vehicle>
   <vehicle id="veh0_672" type="veh_type_2" depart="470.88607594936707" departLane="best" departSpeed="max">
      <route edges="1120094388#0 1120094388#1 130285156#1 130285156#2 590598876#1"/>
   </vehicle>
   <vehicle id="veh1_531" type="veh_type_1" depart="473.3067729083665" departLane="best" departSpeed="max">
      <route edges="-590598876#1 -130285156#2 -130285156#1 -130285156#0 -1120094388#0"/>
   </vehicle>
   <vehicle id="veh0_484" type="veh_type_4" depart="478.4810126582278" departLane="best" departSpeed="max">
      <route edges="1120094388#0 1120094388#1 130285156#1 130285156#2 590598876#1"/>
   </vehicle>
   <vehicle id="veh98_205" type="veh_type_0" depart="480.0" departLane="best" departSpeed="max">
      <route edges="-590598876#1 -50799230#3 -50799230#2"/>
   </vehicle>
   <vehicle id="veh0_373" type="veh_type_3" depart="486.0759493670886" departLane="best" departSpeed="max">
      <route edges="1120094388#0 1120094388#1 130285156#1 130285156#2 590598876#1"/>
   </vehicle>
   <vehicle id="veh1_502" type="veh_type_2" depart="487.64940239043824" departLane="best" departSpeed="max">
      <route edges="-590598876#1 -130285156#2 -130285156#1 -130285156#0 -1120094388#0"/>
   </vehicle>
   <vehicle id="veh0_711" type="veh_type_1" depart="493.67088607594934" departLane="best" departSpeed="max">
      <route edges="1120094388#0 1120094388#1 130285156#1 130285156#2 590598876#1"/>
   </vehicle>
   <vehicle id="veh60_193" type="veh_type_3" depart="498.46153846153845" departLane="best" departSpeed="max">
      <route edges="1120094388#0 1120094388#1 130285156#1 130285156#2 -50799230#3 -50799230#2"/>
   </vehicle>
   <vehicle id="veh0_455" type="veh_type_0" depart="501.2658227848101" departLane="best" departSpeed="max">
      <route edges="1120094388#0 1120094388#1 130285156#1 130285156#2 590598876#1"/>
   </vehicle>
   <vehicle id="veh1_311" type="veh_type_1" depart="501.9920318725099" departLane="best" departSpeed="max">
      <route edges="-590598876#1 -130285156#2 -130285156#1 -130285156#0 -1120094388#0"/>
   </vehicle>
   <vehicle id="veh0_661" type="veh_type_1" depart="508.86075949367086" departLane="best" departSpeed="max">
      <route edges="1120094388#0 1120094388#1 130285156#1 130285156#2 590598876#1"/>
   </vehicle>
   <vehicle id="veh1_374" type="veh_type_4" depart="516.3346613545816" departLane="best" departSpeed="max">
      <route edges="-590598876#1 -130285156#2 -130285156#1 -130285156#0 -1120094388#0"/>
   </vehicle>
   <vehicle id="veh0_146" type="veh_type_1" depart="516.4556962025316" departLane="best" departSpeed="max">
      <route edges="1120094388#0 1120094388#1 130285156#1 130285156#2 590598876#1"/>
   </vehicle>
   <vehicle id="veh51_614" type="veh_type_4" depart="523.6363636363636" departLane="best" departSpeed="max">
      <route edges="50799230#0 50799230#3 590598876#1"/>
   </vehicle>
   <vehicle id="veh0_881" type="veh_type_1" depart="524.0506329113924" departLane="best" departSpeed="max">
      <route edges="1120094388#0 1120094388#1 130285156#1 130285156#2 590598876#1"/>
   </vehicle>
   <vehicle id="veh1_251" type="veh_type_1" depart="530.6772908366534" departLane="best" departSpeed="max">
      <route edges="-590598876#1 -130285156#2 -130285156#1 -130285156#0 -1120094388#0"/>
   </vehicle>
   <vehicle id="veh0_702" type="veh_type_2" depart="531.6455696202531" departLane="best" departSpeed="max">
      <route edges="1120094388#0 1120094388#1 130285156#1 130285156#2 590598876#1"/>
   </vehicle>
   <vehicle id="veh0_470" type="veh_type_0" depart="539.2405063291139" departLane="best" departSpeed="max">
      <route edges="1120094388#0 1120094388#1 130285156#1 130285156#2 590598876#1"/>
   </vehicle>
   <vehicle id="veh1_425" type="veh_type_0" depart="545.0199203187251" departLane="best" departSpeed="max">
      <route edges="-590598876#1 -130285156#2 -130285156#1 -130285156#0 -1120094388#0"/>
   </vehicle>
   <vehicle id="veh0_355" type="veh_type_0" depart="546.8354430379746" departLane="best" departSpeed="max">
      <route edges="1120094388#0 1120094388#1 130285156#1 130285156#2 590598876#1"/>
   </vehicle>
   <vehicle id="veh60_244" type="veh_type_4" depart="553.8461538461538" departLane="best" departSpeed="max">
      <route edges="1120094388#0 1120094388#1 130285156#1 130285156#2 -50799230#3 -50799230#2"/>
   </vehicle>
   <vehicle id="veh0_766" type="veh_type_1" depart="554.4303797468355" departLane="best" departSpeed="max">
      <route edges="1120094388#0 1120094388#1 130285156#1 130285156#2 590598876#1"/>
   </vehicle>